6V7D
     RDKit          3D

 19 20  0  0  0  0  0  0  0  0999 V2000
   15.1810    8.3460   23.3290 O   0  0  0  0  0  0  0  0  0  0  0  0
   15.2700    7.2850   23.9190 C   0  0  0  0  0  0  0  0  0  0  0  0
   16.4180    6.7810   24.3300 O   0  0  0  0  0  0  0  0  0  0  0  0
   14.0340    6.4120   24.2770 C   0  0  1  0  0  0  0  0  0  0  0  0
   12.8270    7.0130   23.6810 N   0  0  0  0  0  0  0  0  0  0  0  0
   14.2010    4.9150   23.7650 C   0  0  2  0  0  0  0  0  0  0  0  0
   14.6840    4.1690   25.0130 C   0  0  0  0  0  0  0  0  0  0  0  0
   13.8280    4.7610   26.1370 C   0  0  2  0  0  0  0  0  0  0  0  0
   13.8000    6.2680   25.8450 C   0  0  1  0  0  0  0  0  0  0  0  0
   14.7670    6.8930   26.8720 C   0  0  0  0  0  0  0  0  0  0  0  0
   14.4380    4.6260   27.5090 N   0  0  0  0  0  0  0  0  0  0  0  0
   14.6230    6.0000   28.0810 C   0  0  0  0  0  0  0  0  0  0  0  0
   15.0990    4.6430   22.5430 C   0  0  0  0  0  0  0  0  0  0  0  0
   14.8470    3.2860   21.8640 C   0  0  0  0  0  0  0  0  0  0  0  0
   15.2810    3.2180   20.4010 C   0  0  0  0  0  0  0  0  0  0  0  0
   14.8250    1.9200   19.6650 B   0  0  2  0  0  0  0  0  0  0  0  0
   13.3460    1.8630   19.4470 O   0  0  0  0  0  0  0  0  0  0  0  0
   15.1580    0.6630   20.3440 O   0  0  0  0  0  0  0  0  0  0  0  0
   15.4790    1.7540   18.3200 O   0  0  0  0  0  0  0  0  0  0  0  0
 16 15  1  0
 16 17  1  6
 16 18  1  0
 16 19  1  0
 12 10  1  0
 12 11  1  0
  9 10  1  6
  8  7  1  6
  8  9  1  0
  8 11  1  0
  9  4  1  0
  4  6  1  0
  4  2  1  0
  4  5  1  6
  2  1  2  0
  2  3  1  0
  6  7  1  0
  6 13  1  6
 13 14  1  0
 14 15  1  0
M  CHG  3   5   1  11   1  16  -1
M  END
$$$$
