6RVK
     RDKit          3D

 22 24  0  0  0  0  0  0  0  0999 V2000
   -5.0750    2.2940   15.9670 C   0  0  0  0  0  0  0  0  0  0  0  0
   -3.8910    2.8200   15.3960 C   0  0  0  0  0  0  0  0  0  0  0  0
   -3.8530    4.1140   14.8320 C   0  0  0  0  0  0  0  0  0  0  0  0
   -5.0060    4.8970   14.8290 C   0  0  0  0  0  0  0  0  0  0  0  0
   -6.1690    4.4110   15.3850 C   0  0  0  0  0  0  0  0  0  0  0  0
   -6.1970    3.1390   15.9480 C   0  0  0  0  0  0  0  0  0  0  0  0
   -7.3300    2.4400   16.6070 C   0  0  0  0  0  0  0  0  0  0  0  0
   -2.5630    5.8520   13.5630 C   0  0  0  0  0  0  0  0  0  0  0  0
   -1.0070    7.3300   12.3590 C   0  0  0  0  0  0  0  0  0  0  0  0
   -1.1440    8.6720   13.0440 C   0  0  0  0  0  0  0  0  0  0  0  0
   -1.9080    9.6820   12.4680 C   0  0  0  0  0  0  0  0  0  0  0  0
   -2.0290   10.9240   13.0780 C   0  0  0  0  0  0  0  0  0  0  0  0
   -1.3860   11.1730   14.2760 C   0  0  0  0  0  0  0  0  0  0  0  0
   -0.6230   10.1800   14.8620 C   0  0  0  0  0  0  0  0  0  0  0  0
   -0.5020    8.9390   14.2500 C   0  0  0  0  0  0  0  0  0  0  0  0
   -6.9640    1.0810   16.4930 O   0  0  0  0  0  0  0  0  0  0  0  0
   -5.2940    0.7850   18.1400 O   0  0  0  0  0  0  0  0  0  0  0  0
   -3.5210    6.5550   13.2430 O   0  0  0  0  0  0  0  0  0  0  0  0
   -2.6720    4.6720   14.2720 N   0  0  0  0  0  0  0  0  0  0  0  0
   -1.3040    6.1650   13.1870 N   0  0  0  0  0  0  0  0  0  0  0  0
   -5.5140    0.8830   16.6900 B   0  0  2  0  0  0  0  0  0  0  0  0
   -5.1490   -0.4060   16.0650 O   0  0  0  0  0  0  0  0  0  0  0  0
 21 22  1  6
 21  1  1  0
 21 16  1  0
 21 17  1  0
  1  6  1  0
  1  2  2  0
 10  9  1  0
 10 11  2  0
 10 15  1  0
 11 12  1  0
 12 13  2  0
 13 14  1  0
 14 15  2  0
  2  3  1  0
  3  4  2  0
  3 19  1  0
  4  5  1  0
  5  6  2  0
  6  7  1  0
  7 16  1  0
  8 18  2  0
  8 19  1  0
  8 20  1  0
  9 20  1  0
M  CHG  1  21  -1
M  END
$$$$
