@<TRIPOS>MOLECULE
5rgz_A_ligand.pdb
19 20 1 0 0
SMALL
AMBER ff14SB


@<TRIPOS>ATOM
      1 N1          5.8917   -2.0197   12.1665 N.am      1 UH1   -0.2599
      2 C4         10.6537   -2.4707   15.7605 C.ar      1 UH1   -0.0150
      3 C5         11.5822   -2.7864   14.7834 C.ar      1 UH1   -0.0333
      4 C6         11.1481   -3.1312   13.5055 C.ar      1 UH1    0.1466
      5 C7         12.1053   -3.4078   12.4644 C.1       1 UH1    0.1171
      6 C8          9.7853   -3.1694   13.2165 C.ar      1 UH1   -0.0667
      7 C10         4.1109   -0.4660   11.5752 C.ar      1 UH1   -0.0257
      8 C13         5.8478   -0.8984   10.0002 C.ar      1 UH1    0.0313
      9 N          12.8876   -3.6293   11.6623 N.1       1 UH1   -0.1910
     10 C3          9.2997   -2.5005   15.4676 C.ar      1 UH1   -0.0360
     11 C2          8.8520   -2.8474   14.1973 C.ar      1 UH1    0.1167
     12 C1          7.3773   -2.8488   13.8703 C.3       1 UH1   -0.0279
     13 C           7.0132   -1.7661   12.8727 C.2       1 UH1    0.2868
     14 O           7.6836   -0.7424   12.7420 O.2       1 UH1   -0.2624
     15 C9          5.2679   -1.1596   11.2413 C.ar      1 UH1    0.1492
     16 N2          5.3622   -0.0032    9.1324 N.ar      1 UH1   -0.1508
     17 C12         4.2525    0.6569    9.4838 C.ar      1 UH1    0.0579
     18 C11         3.5943    0.4602   10.6862 C.ar      1 UH1    0.0051
     19 HN1         5.4545   -2.9176   12.3166 H         1 UH1    0.1580
@<TRIPOS>BOND
     1   13    1 am
     2   13   12 1
     3   13   14 2
     4   12   11 1
     5    7   15 ar
     6    7   18 ar
     7   18   17 ar
     8   17   16 ar
     9    8   15 ar
    10    8   16 ar
    11   11    6 ar
    12   11   10 ar
    13   10    2 ar
    14    2    3 ar
    15    3    4 ar
    16    4    5 1
    17    4    6 ar
    18    5    9 3
    19   15    1 1
    20   19    1 1
@<TRIPOS>SUBSTRUCTURE
     1 UH1     1 RESIDUE           4 A     UH1     0 ROOT
