8AUP
     RDKit          3D

 20 20  0  0  0  0  0  0  0  0999 V2000
  -35.8410   14.1810 -122.7380 B   0  0  1  0  0  0  0  0  0  0  0  0
  -40.0520   13.4420 -127.1410 C   0  0  1  0  0  0  0  0  0  0  0  0
  -39.7150   14.6240 -128.0640 C   0  0  0  0  0  0  0  0  0  0  0  0
  -39.0210   13.3100 -125.9870 C   0  0  0  0  0  0  0  0  0  0  0  0
  -39.1780   14.3990 -124.9490 C   0  0  2  0  0  0  0  0  0  0  0  0
  -38.2350   14.0870 -123.7680 C   0  0  0  0  0  0  0  0  0  0  0  0
  -36.8480   14.6980 -123.9730 C   0  0  0  0  0  0  0  0  0  0  0  0
  -40.5970   14.5090 -124.4140 C   0  0  0  0  0  0  0  0  0  0  0  0
  -41.6570   14.5750 -125.5160 C   0  0  0  0  0  0  0  0  0  0  0  0
  -41.4870   13.5110 -126.5860 C   0  0  1  0  0  0  0  0  0  0  0  0
  -42.4770   13.7900 -127.7350 C   0  0  0  0  0  0  0  0  0  0  0  0
  -44.5310   13.0510 -126.8060 C   0  0  0  0  0  0  0  0  0  0  0  0
  -44.1890   12.8440 -129.0900 C   0  0  0  0  0  0  0  0  0  0  0  0
  -39.8990   12.3870 -128.0930 N   0  0  0  0  0  0  0  0  0  0  0  0
  -43.5450   12.7800 -127.7920 N   0  0  0  0  0  0  0  0  0  0  0  0
  -40.0790   15.7880 -127.7690 O   0  0  0  0  0  0  0  0  0  0  0  0
  -39.0690   14.4220 -129.1160 O   0  0  0  0  0  0  0  0  0  0  0  0
  -35.7260   12.4990 -122.7620 O   0  0  0  0  0  0  0  0  0  0  0  0
  -34.3160   14.8490 -122.9560 O   0  0  0  0  0  0  0  0  0  0  0  0
  -36.4650   14.6840 -121.2490 O   0  0  0  0  0  0  0  0  0  0  0  0
  1  7  1  0
  1 18  1  1
  1 19  1  0
  1 20  1  0
  2  3  1  0
  2  4  1  0
  2 10  1  0
  2 14  1  6
  3 16  2  0
  3 17  1  0
  4  5  1  0
  5  6  1  1
  5  8  1  0
  6  7  1  0
  8  9  1  0
  9 10  1  0
 10 11  1  6
 11 15  1  0
 15 12  1  1
 13 15  1  0
M  CHG  1   1  -1
M  END
$$$$
