6b8y
     RDKit          3D

 37 40  0  0  0  0  0  0  0  0999 V2000
    4.1560    7.3820    3.0210 C   0  0  0  0  0  0  0  0  0  0  0  0
    1.8960    6.6440    3.2270 C   0  0  0  0  0  0  0  0  0  0  0  0
    1.9070    6.3880    1.8600 C   0  0  0  0  0  0  0  0  0  0  0  0
    5.9590   11.1730    4.1240 C   0  0  0  0  0  0  0  0  0  0  0  0
    6.7550   12.0110    3.3650 C   0  0  0  0  0  0  0  0  0  0  0  0
    8.0690   12.2120    3.7290 C   0  0  0  0  0  0  0  0  0  0  0  0
    8.5570   11.5570    4.8490 C   0  0  0  0  0  0  0  0  0  0  0  0
   10.0130   11.5860    5.2300 C   0  0  1  0  0  0  0  0  0  0  0  0
    6.5090   10.5530    5.2450 C   0  0  0  0  0  0  0  0  0  0  0  0
    3.0360    7.1650    3.8290 C   0  0  0  0  0  0  0  0  0  0  0  0
    4.2130    7.6610    7.3030 C   0  0  0  0  0  0  0  0  0  0  0  0
    5.2380    8.4510    7.9430 C   0  0  0  0  0  0  0  0  0  0  0  0
    5.9790    9.3900    7.3210 N   0  0  0  0  0  0  0  0  0  0  0  0
    5.6690    9.6060    6.0290 C   0  0  0  0  0  0  0  0  0  0  0  0
    4.6850    8.9960    5.3530 N   0  0  0  0  0  0  0  0  0  0  0  0
    3.9840    8.0320    5.9460 C   0  0  0  0  0  0  0  0  0  0  0  0
    3.7290    6.7230    8.2800 C   0  0  0  0  0  0  0  0  0  0  0  0
    4.4090    6.9800    9.4280 C   0  0  0  0  0  0  0  0  0  0  0  0
    5.2910    8.0150    9.2340 N   0  0  0  0  0  0  0  0  0  0  0  0
    3.0430    7.3710    5.2150 N   0  0  0  0  0  0  0  0  0  0  0  0
    4.0770    7.0670    1.6750 C   0  0  0  0  0  0  0  0  0  0  0  0
    2.9820    6.5780    1.0890 N   0  0  0  0  0  0  0  0  0  0  0  0
    0.8530    6.3110    4.0320 F   0  0  0  0  0  0  0  0  0  0  0  0
    7.7930   10.7540    5.6100 N   0  0  0  0  0  0  0  0  0  0  0  0
   10.2060   11.9450    6.5090 F   0  0  0  0  0  0  0  0  0  0  0  0
   10.5520   10.3980    5.1010 F   0  0  0  0  0  0  0  0  0  0  0  0
   10.7230   12.4340    4.4590 F   0  0  0  0  0  0  0  0  0  0  0  0
    5.1140    7.7400    3.3930 H   0  0  0  0  0  0  0  0  0  0  0  0
    1.0020    6.0580    1.3550 H   0  0  0  0  0  0  0  0  0  0  0  0
    4.9210   11.0350    3.8270 H   0  0  0  0  0  0  0  0  0  0  0  0
    6.3410   12.5390    2.5100 H   0  0  0  0  0  0  0  0  0  0  0  0
    8.6900   12.8680    3.1210 H   0  0  0  0  0  0  0  0  0  0  0  0
    2.9860    5.9430    8.1220 H   0  0  0  0  0  0  0  0  0  0  0  0
    4.3050    6.4890   10.3930 H   0  0  0  0  0  0  0  0  0  0  0  0
    5.8770    8.4420    9.9400 H   0  0  0  0  0  0  0  0  0  0  0  0
    2.2630    6.9920    5.7410 H   0  0  0  0  0  0  0  0  0  0  0  0
    4.9390    7.1890    1.0240 H   0  0  0  0  0  0  0  0  0  0  0  0
 11 12  1  0
 11 16  2  0
 11 17  1  0
  9  4  2  0
  9 14  1  0
  9 24  1  0
 10  1  2  0
 10  2  1  0
 10 20  1  0
  1 21  1  0
  1 28  1  0
 21 22  2  0
 21 37  1  0
  3  2  2  0
  3 22  1  0
  3 29  1  0
  2 23  1  0
  4  5  1  0
  4 30  1  0
 12 13  2  0
 12 19  1  0
  5  6  2  0
  5 31  1  0
  6  7  1  0
  6 32  1  0
  7  8  1  0
  7 24  2  0
  8 25  1  1
  8 26  1  0
  8 27  1  0
 14 13  1  0
 14 15  2  0
 16 15  1  0
 16 20  1  0
 17 18  2  0
 17 33  1  0
 18 19  1  0
 18 34  1  0
 35 19  1  0
 36 20  1  0
M  END
