5g6v_ligand
     RDKit          3D

 69 73  0  0  0  0  0  0  0  0999 V2000
   63.0920   23.1100   39.3870 C   0  0  0  0  0  0  0  0  0  0  0  0
   64.0900   22.5640   38.5930 C   0  0  0  0  0  0  0  0  0  0  0  0
   64.4430   23.1560   37.4190 C   0  0  0  0  0  0  0  0  0  0  0  0
   63.8060   24.3390   37.0070 C   0  0  0  0  0  0  0  0  0  0  0  0
   62.7890   24.8980   37.8240 C   0  0  0  0  0  0  0  0  0  0  0  0
   62.4500   24.2390   39.0320 C   0  0  0  0  0  0  0  0  0  0  0  0
   63.5870   26.0620   35.4520 C   0  0  0  0  0  0  0  0  0  0  0  0
   64.1780   24.9300   35.8190 N   0  0  0  0  0  0  0  0  0  0  0  0
   62.1780   26.0920   37.3790 C   0  0  0  0  0  0  0  0  0  0  0  0
   62.5850   26.6710   36.2110 C   0  0  0  0  0  0  0  0  0  0  0  0
   51.5890   22.1490   44.7320 C   0  0  0  0  0  0  0  0  0  0  0  0
   51.0170   23.0990   45.4940 N   0  0  0  0  0  0  0  0  0  0  0  0
   51.0650   24.3710   45.0820 C   0  0  0  0  0  0  0  0  0  0  0  0
   51.6910   24.7390   43.9030 C   0  0  0  0  0  0  0  0  0  0  0  0
   52.2750   23.7500   43.1280 C   0  0  0  0  0  0  0  0  0  0  0  0
   52.2260   22.4290   43.5540 C   0  0  0  0  0  0  0  0  0  0  0  0
   56.3610   23.0520   42.2030 C   0  0  0  0  0  0  0  0  0  0  0  0
   55.0700   23.3680   42.5710 C   0  0  0  0  0  0  0  0  0  0  0  0
   54.1810   23.8420   41.6340 C   0  0  0  0  0  0  0  0  0  0  0  0
   54.5710   23.9920   40.3080 C   0  0  0  0  0  0  0  0  0  0  0  0
   55.8540   23.6640   39.9630 C   0  0  0  0  0  0  0  0  0  0  0  0
   56.7760   23.1810   40.8860 C   0  0  0  0  0  0  0  0  0  0  0  0
   63.1680   21.4930   42.5050 C   0  0  0  0  0  0  0  0  0  0  0  0
   61.8050   21.5340   42.3180 C   0  0  0  0  0  0  0  0  0  0  0  0
   61.5550   22.1520   41.1440 C   0  0  0  0  0  0  0  0  0  0  0  0
   62.7630   22.4600   40.6120 N   0  0  0  0  0  0  0  0  0  0  0  0
   63.7730   22.0540   41.4650 N   0  0  0  0  0  0  0  0  0  0  0  0
   60.3290   22.4350   40.5400 N   0  0  0  0  0  0  0  0  0  0  0  0
   59.1830   22.7020   41.2220 C   0  0  0  0  0  0  0  0  0  0  0  0
   58.0750   22.8700   40.4450 N   0  0  0  0  0  0  0  0  0  0  0  0
   59.1820   22.7620   42.4440 O   0  0  0  0  0  0  0  0  0  0  0  0
   52.8750   24.1900   41.9560 O   0  0  0  0  0  0  0  0  0  0  0  0
   56.2480   23.8050   38.6790 F   0  0  0  0  0  0  0  0  0  0  0  0
   50.4400   25.4220   45.9540 C   0  0  0  0  0  0  0  0  0  0  0  0
   50.6200   26.6180   45.7240 O   0  0  0  0  0  0  0  0  0  0  0  0
   49.7030   24.9790   46.9790 N   0  0  0  0  0  0  0  0  0  0  0  0
   49.1490   25.8800   47.9830 C   0  0  2  0  0  0  0  0  0  0  0  0
   63.9600   20.9050   43.6510 C   0  0  1  0  0  0  0  0  0  0  0  0
   65.3860   21.4670   43.6560 C   0  0  2  0  0  0  0  0  0  0  0  0
   63.2860   21.2520   44.9710 C   0  0  2  0  0  0  0  0  0  0  0  0
   64.0190   19.4050   43.5010 C   0  0  2  0  0  0  0  0  0  0  0  0
   64.5910   21.6610   38.9090 H   0  0  0  0  0  0  0  0  0  0  0  0
   65.2140   22.7160   36.8030 H   0  0  0  0  0  0  0  0  0  0  0  0
   61.6760   24.6430   39.6680 H   0  0  0  0  0  0  0  0  0  0  0  0
   63.8940   26.5310   34.5290 H   0  0  0  0  0  0  0  0  0  0  0  0
   61.3900   26.5460   37.9620 H   0  0  0  0  0  0  0  0  0  0  0  0
   62.1350   27.5940   35.8760 H   0  0  0  0  0  0  0  0  0  0  0  0
   51.5430   21.1220   45.0640 H   0  0  0  0  0  0  0  0  0  0  0  0
   51.7230   25.7730   43.5940 H   0  0  0  0  0  0  0  0  0  0  0  0
   52.6800   21.6420   42.9700 H   0  0  0  0  0  0  0  0  0  0  0  0
   57.0570   22.7000   42.9500 H   0  0  0  0  0  0  0  0  0  0  0  0
   54.7560   23.2430   43.5970 H   0  0  0  0  0  0  0  0  0  0  0  0
   53.8770   24.3590   39.5670 H   0  0  0  0  0  0  0  0  0  0  0  0
   61.0620   21.1390   42.9950 H   0  0  0  0  0  0  0  0  0  0  0  0
   60.2900   22.4420   39.5310 H   0  0  0  0  0  0  0  0  0  0  0  0
   58.2000   22.7600   39.4490 H   0  0  0  0  0  0  0  0  0  0  0  0
   49.5240   23.9880   47.0600 H   0  0  0  0  0  0  0  0  0  0  0  0
   48.6470   26.7110   47.4880 H   0  0  0  0  0  0  0  0  0  0  0  0
   49.9540   26.2640   48.6100 H   0  0  0  0  0  0  0  0  0  0  0  0
   48.4330   25.3390   48.6010 H   0  0  0  0  0  0  0  0  0  0  0  0
   65.3490   22.5510   43.7640 H   0  0  0  0  0  0  0  0  0  0  0  0
   65.8800   21.2120   42.7180 H   0  0  0  0  0  0  0  0  0  0  0  0
   65.9430   21.0370   44.4890 H   0  0  0  0  0  0  0  0  0  0  0  0
   63.2410   22.3350   45.0830 H   0  0  0  0  0  0  0  0  0  0  0  0
   63.8590   20.8250   45.7940 H   0  0  0  0  0  0  0  0  0  0  0  0
   62.2750   20.8440   44.9810 H   0  0  0  0  0  0  0  0  0  0  0  0
   64.5010   19.1520   42.5570 H   0  0  0  0  0  0  0  0  0  0  0  0
   63.0080   18.9990   43.5120 H   0  0  0  0  0  0  0  0  0  0  0  0
   64.5910   18.9800   44.3260 H   0  0  0  0  0  0  0  0  0  0  0  0
  1  2  2  0
  1  6  1  0
  1 26  1  0
  2  3  1  0
  2 42  1  0
  3  4  2  0
  3 43  1  0
  4  5  1  0
  4  8  1  0
  5  6  2  0
  5  9  1  0
  6 44  1  0
  7  8  2  0
  7 10  1  0
  7 45  1  0
  9 10  2  0
  9 46  1  0
 10 47  1  0
 11 12  2  0
 11 16  1  0
 11 48  1  0
 12 13  1  0
 13 14  2  0
 13 34  1  0
 14 15  1  0
 14 49  1  0
 15 16  2  0
 15 32  1  0
 16 50  1  0
 17 18  2  0
 17 22  1  0
 17 51  1  0
 18 19  1  0
 18 52  1  0
 19 20  2  0
 19 32  1  0
 20 21  1  0
 20 53  1  0
 21 22  2  0
 21 33  1  0
 22 30  1  0
 23 24  1  0
 23 27  2  0
 38 23  1  6
 24 25  2  0
 24 54  1  0
 25 26  1  0
 25 28  1  0
 26 27  1  0
 28 29  1  0
 28 55  1  0
 29 30  1  0
 29 31  2  0
 30 56  1  0
 34 35  2  0
 34 36  1  0
 36 37  1  0
 36 57  1  0
 37 58  1  6
 37 59  1  0
 37 60  1  0
 38 39  1  0
 38 40  1  0
 38 41  1  0
 39 61  1  1
 39 62  1  0
 39 63  1  0
 40 64  1  1
 40 65  1  0
 40 66  1  0
 41 67  1  6
 41 68  1  0
 41 69  1  0
M  END
