@<TRIPOS>MOLECULE
5g53_A_ligand.pdb
27 29 1 0 0
SMALL
AMBER ff14SB


@<TRIPOS>ATOM
      1 C5'        32.7855   18.6224  -16.0551 C.2       1 NEC    0.2808
      2 O5'        31.9768   17.7053  -16.1024 O.2       1 NEC   -0.2684
      3 N5'        33.2166   19.1398  -14.9049 N.am      1 NEC   -0.2377
      4 C51        32.7799   18.6235  -13.6214 C.3       1 NEC    0.0161
      5 C52        33.5250   19.2415  -12.4655 C.3       1 NEC    0.0074
      6 C4'        33.3792   19.2132  -17.3036 C.3       1 NEC    0.1799
      7 O4'        34.5009   18.3978  -17.6550 O.3       1 NEC   -0.2831
      8 C3'        32.4381   19.2529  -18.5084 C.3       1 NEC    0.1426
      9 O3'        31.9868   20.5848  -18.7887 O.3       1 NEC   -0.3559
     10 C2'        33.2477   18.6633  -19.6539 C.3       1 NEC    0.1524
     11 O2'        33.8007   19.6648  -20.5210 O.3       1 NEC   -0.3551
     12 C1'        34.3787   17.8904  -18.9911 C.3       1 NEC    0.1919
     13 N9         34.0972   16.4229  -19.0086 N.ar      1 NEC   -0.1760
     14 C8         33.7123   15.6366  -17.9753 C.ar      1 NEC    0.0760
     15 N7         33.5542   14.3521  -18.3783 N.ar      1 NEC   -0.1834
     16 C5         33.8388   14.3072  -19.6871 C.ar      1 NEC    0.1543
     17 C6         33.8772   13.2658  -20.7387 C.ar      1 NEC    0.1448
     18 N6         33.5578   11.9848  -20.4392 N.pl3     1 NEC   -0.2842
     19 N1         34.2370   13.6352  -21.9945 N.ar      1 NEC   -0.1730
     20 C2         34.5527   14.9126  -22.3019 C.ar      1 NEC    0.1030
     21 N3         34.5349   15.9058  -21.3908 N.ar      1 NEC   -0.1677
     22 C4         34.2016   15.6682  -20.0992 C.ar      1 NEC    0.1800
     23 H5'        33.8661   19.9136  -14.9268 H         1 NEC    0.1665
     24 HO3'       32.6429   21.0397  -19.3213 H         1 NEC    0.2185
     25 HO2'       33.6142   20.5367  -20.1647 H         1 NEC    0.2185
     26 H61        32.9202   11.6264  -19.7436 H         1 NEC    0.1259
     27 H62        34.0274   11.2838  -20.9945 H         1 NEC    0.1259
@<TRIPOS>BOND
     1   12    7 1
     2   12   10 1
     3   12   13 1
     4   20   19 ar
     5   20   21 ar
     6   10    8 1
     7   10   11 1
     8    8    6 1
     9    8    9 1
    10   22   13 ar
    11   22   16 ar
    12   22   21 ar
    13    6    1 1
    14    6    7 1
    15   16   15 ar
    16   16   17 ar
    17    1    2 2
    18    1    3 am
    19    4    3 1
    20    4    5 1
    21   17   18 1
    22   17   19 ar
    23   14   13 ar
    24   14   15 ar
    25   23    3 1
    26   26   18 1
    27   27   18 1
    28   25   11 1
    29   24    9 1
@<TRIPOS>SUBSTRUCTURE
     1 NEC     6 RESIDUE           4 A     NEC     0 ROOT
