@<TRIPOS>MOLECULE
5rgw_A_ligand.pdb
19 20 1 0 0
SMALL
AMBER ff14SB


@<TRIPOS>ATOM
      1 N1         12.8307   -3.6940   11.6109 N.1       1 UGM   -0.1910
      2 N3          5.5518    0.0459    9.2000 N.ar      1 UGM   -0.1508
      3 C4         11.4671   -2.7015   14.7143 C.ar      1 UGM    0.0254
      4 C5         11.0962   -3.1110   13.4325 C.ar      1 UGM    0.1579
      5 C6         12.0772   -3.4362   12.4284 C.1       1 UGM    0.1181
      6 C7          9.7395   -3.1939   13.1379 C.ar      1 UGM   -0.0648
      7 C8          5.1866   -1.0899   11.2927 C.ar      1 UGM    0.1492
      8 C10         3.5342    0.4162   10.4407 C.ar      1 UGM    0.0051
      9 N          10.5827   -2.3831   15.6667 N.ar      1 UGM   -0.1589
     10 C3          9.2806   -2.4680   15.3510 C.ar      1 UGM    0.0226
     11 C2          8.8021   -2.8628   14.1109 C.ar      1 UGM    0.1280
     12 C1          7.3232   -2.8769   13.8068 C.3       1 UGM   -0.0269
     13 C           6.9851   -1.7346   12.8689 C.2       1 UGM    0.2869
     14 O           7.8128   -0.8711   12.5806 O.2       1 UGM   -0.2624
     15 N2          5.7042   -1.7092   12.4496 N.am      1 UGM   -0.2599
     16 C12         5.9491   -0.7970   10.1604 C.ar      1 UGM    0.0313
     17 C11         4.3641    0.6417    9.3568 C.ar      1 UGM    0.0579
     18 C9          3.9453   -0.4787   11.4107 C.ar      1 UGM   -0.0257
     19 H2          5.0350   -2.1911   13.0335 H         1 UGM    0.1580
@<TRIPOS>BOND
     1   13   14 2
     2   13   15 am
     3   13   12 1
     4   12   11 1
     5    8   18 ar
     6    8   17 ar
     7   17    2 ar
     8   16    7 ar
     9   16    2 ar
    10   11    6 ar
    11   11   10 ar
    12   10    9 ar
    13    3    4 ar
    14    3    9 ar
    15    4    6 ar
    16    4    5 1
    17    5    1 3
    18    7   18 ar
    19    7   15 1
    20   19   15 1
@<TRIPOS>SUBSTRUCTURE
     1 UGM     1 RESIDUE           4 A     UGM     0 ROOT
