7NP0
     RDKit          3D

 12 12  0  0  0  0  0  0  0  0999 V2000
  -35.2940   -4.4470  -52.6080 B   0  0  0  0  0  0  0  0  0  0  0  0
  -34.4270   -5.0020  -51.4200 C   0  0  0  0  0  0  0  0  0  0  0  0
  -33.2400   -4.3850  -51.0430 C   0  0  0  0  0  0  0  0  0  0  0  0
  -32.5040   -4.9110  -49.9890 C   0  0  0  0  0  0  0  0  0  0  0  0
  -32.9590   -6.0460  -49.3230 C   0  0  0  0  0  0  0  0  0  0  0  0
  -34.1410   -6.6580  -49.7020 C   0  0  0  0  0  0  0  0  0  0  0  0
  -34.8800   -6.1300  -50.7520 C   0  0  0  0  0  0  0  0  0  0  0  0
  -32.1850   -6.6040  -48.2350 N   0  0  0  0  0  0  0  0  0  0  0  0
  -35.0170   -3.2560  -53.1610 O   0  0  0  0  0  0  0  0  0  0  0  0
  -32.5580   -7.8320  -47.6690 O   0  0  0  0  0  0  0  0  0  0  0  0
  -31.2180   -6.0420  -47.8540 O   0  0  0  0  0  0  0  0  0  0  0  0
  -36.2840   -5.2120  -53.0950 O   0  0  0  0  0  0  0  0  0  0  0  0
  1  2  1  0
  1  9  1  0
  1 12  1  0
  2  3  2  0
  2  7  1  0
  3  4  1  0
  4  5  2  0
  5  6  1  0
  5  8  1  0
  6  7  2  0
  8 10  2  0
  8 11  1  0
M  CHG  2   8   1  11  -1
M  END
$$$$
