5mhq_A_ligand
  Mrv1922 01292211233D          

 54 56  0  0  0  0            999 V2000
   -0.6400   24.5750    9.6310 C   0  0  0  0  0  0  0  0  0  0  0  0
    0.6530   27.1200   10.1590 N   0  0  0  0  0  0  0  0  0  0  0  0
    0.0500   27.2360   13.0970 O   0  0  0  0  0  0  0  0  0  0  0  0
   -0.8330   25.3370   10.9140 C   0  0  2  0  0  0  0  0  0  0  0  0
    2.0840   28.2270    8.7510 N   0  0  0  0  0  0  0  0  0  0  0  0
   -0.6530   26.8450   10.7550 C   0  0  1  0  0  0  0  0  0  0  0  0
    3.6150   29.3550    7.4140 N   0  0  0  0  0  0  0  0  0  0  0  0
    0.8750   28.1780    9.3610 C   0  0  0  0  0  0  0  0  0  0  0  0
    5.6640   25.2440    6.1070 N   0  0  0  0  0  0  0  0  0  0  0  0
    2.4130   29.2880    7.9940 C   0  0  0  0  0  0  0  0  0  0  0  0
    1.5290   31.5250    7.1440 N   0  0  0  0  0  0  0  0  0  0  0  0
    4.7310   28.4920    7.7680 C   0  0  2  0  0  0  0  0  0  0  0  0
   -0.4530   31.2890    8.2070 N   0  0  0  0  0  0  0  0  0  0  0  0
    4.9890   27.4620    6.6970 C   0  0  0  0  0  0  0  0  0  0  0  0
   -0.0920   29.1200    9.2800 N   0  0  0  0  0  0  0  0  0  0  0  0
    4.7850   27.7450    5.3710 C   0  0  0  0  0  0  0  0  0  0  0  0
    5.0150   26.7850    4.4210 C   0  0  0  0  0  0  0  0  0  0  0  0
    5.4430   25.5660    4.8220 C   0  0  0  0  0  0  0  0  0  0  0  0
    5.4310   26.2000    7.0140 C   0  0  0  0  0  0  0  0  0  0  0  0
    1.4770   30.3120    7.8340 C   0  0  0  0  0  0  0  0  0  0  0  0
    0.3740   32.0650    7.4400 C   0  0  0  0  0  0  0  0  0  0  0  0
   -1.7800   31.6470    8.7340 C   0  0  2  0  0  0  0  0  0  0  0  0
   -1.6680   31.9290   10.2100 C   0  0  0  0  0  0  0  0  0  0  0  0
   -2.8110   30.5720    8.4190 C   0  0  0  0  0  0  0  0  0  0  0  0
    0.2820   30.1640    8.5160 C   0  0  0  0  0  0  0  0  0  0  0  0
   -0.8610   27.6230   12.0720 C   0  0  1  0  0  0  0  0  0  0  0  0
   -2.2390   27.4070   12.6510 C   0  0  0  0  0  0  0  0  0  0  0  0
    0.4050   24.2780    9.5390 H   0  0  0  0  0  0  0  0  0  0  0  0
   -1.2710   23.6860    9.6370 H   0  0  0  0  0  0  0  0  0  0  0  0
   -0.9120   25.2090    8.7870 H   0  0  0  0  0  0  0  0  0  0  0  0
   -0.0690   24.9930   11.6110 H   0  0  0  0  0  0  0  0  0  0  0  0
   -1.8410   25.1450   11.2830 H   0  0  0  0  0  0  0  0  0  0  0  0
   -1.4340   27.2050   10.0850 H   0  0  0  0  0  0  0  0  0  0  0  0
    4.4830   27.9710    8.6930 H   0  0  0  0  0  0  0  0  0  0  0  0
    5.6250   29.1020    7.8980 H   0  0  0  0  0  0  0  0  0  0  0  0
    4.4390   28.7350    5.0720 H   0  0  0  0  0  0  0  0  0  0  0  0
    4.8560   26.9990    3.3640 H   0  0  0  0  0  0  0  0  0  0  0  0
    5.6180   24.8050    4.0620 H   0  0  0  0  0  0  0  0  0  0  0  0
    5.6020   25.9640    8.0640 H   0  0  0  0  0  0  0  0  0  0  0  0
    0.0910   33.0610    7.1000 H   0  0  0  0  0  0  0  0  0  0  0  0
   -2.1350   32.5520    8.2410 H   0  0  0  0  0  0  0  0  0  0  0  0
   -1.1870   32.8960   10.3590 H   0  0  0  0  0  0  0  0  0  0  0  0
   -2.6630   31.9460   10.6540 H   0  0  0  0  0  0  0  0  0  0  0  0
   -1.0710   31.1500   10.6850 H   0  0  0  0  0  0  0  0  0  0  0  0
   -3.7020   31.0360    7.9960 H   0  0  0  0  0  0  0  0  0  0  0  0
   -2.3930   29.8670    7.7000 H   0  0  0  0  0  0  0  0  0  0  0  0
   -3.0770   30.0440    9.3350 H   0  0  0  0  0  0  0  0  0  0  0  0
   -0.7040   28.6640   11.7890 H   0  0  0  0  0  0  0  0  0  0  0  0
   -2.9570   27.2790   11.8410 H   0  0  0  0  0  0  0  0  0  0  0  0
   -2.2350   26.5150   13.2770 H   0  0  0  0  0  0  0  0  0  0  0  0
   -2.5210   28.2720   13.2520 H   0  0  0  0  0  0  0  0  0  0  0  0
    1.4180   26.4900   10.3530 H   0  0  0  0  0  0  0  0  0  0  0  0
    3.7560   30.0440    6.6890 H   0  0  0  0  0  0  0  0  0  0  0  0
    0.8710   27.7240   12.9970 H   0  0  0  0  0  0  0  0  0  0  0  0
  1  4  1  0  0  0  0
  1 28  1  0  0  0  0
  1 29  1  0  0  0  0
  1 30  1  0  0  0  0
  2  6  1  0  0  0  0
  2 52  1  0  0  0  0
  3 54  1  0  0  0  0
  4 31  1  0  0  0  0
  4 32  1  0  0  0  0
  4  6  1  0  0  0  0
  6 26  1  0  0  0  0
  6 33  1  0  0  0  0
  7 53  1  0  0  0  0
  2  8  1  0  0  0  0
  5  8  4  0  0  0  0
  8 15  4  0  0  0  0
  5 10  4  0  0  0  0
  7 10  1  0  0  0  0
 10 20  4  0  0  0  0
  7 12  1  0  0  0  0
 12 14  1  0  0  0  0
 12 34  1  0  0  0  0
 12 35  1  0  0  0  0
 13 25  4  0  0  0  0
 14 16  4  0  0  0  0
 16 17  4  0  0  0  0
 16 36  1  0  0  0  0
 17 18  4  0  0  0  0
 17 37  1  0  0  0  0
  9 18  4  0  0  0  0
 18 38  1  0  0  0  0
  9 19  4  0  0  0  0
 14 19  4  0  0  0  0
 19 39  1  0  0  0  0
 11 20  4  0  0  0  0
 20 25  4  0  0  0  0
 11 21  4  0  0  0  0
 13 21  4  0  0  0  0
 21 40  1  0  0  0  0
 13 22  1  0  0  0  0
 22 23  1  0  0  0  0
 22 24  1  0  0  0  0
 22 41  1  0  0  0  0
 23 42  1  0  0  0  0
 23 43  1  0  0  0  0
 23 44  1  0  0  0  0
 24 45  1  0  0  0  0
 24 46  1  0  0  0  0
 24 47  1  0  0  0  0
 15 25  4  0  0  0  0
  3 26  1  0  0  0  0
 26 27  1  0  0  0  0
 26 48  1  0  0  0  0
 27 49  1  0  0  0  0
 27 50  1  0  0  0  0
 27 51  1  0  0  0  0
M  END
