# created with PyMOL 2.5.2
@<TRIPOS>MOLECULE
5mhq_A_ligand
54 56 1                 
SMALL
USER_CHARGES
@<TRIPOS>ATOM
1	  C1	-0.640	24.575	9.631	C.3	1	8QT302	0.000	
2	  N1	0.653	27.120	10.159	N.pl3	1	8QT302	0.000	
3	  O1	0.050	27.236	13.097	O.3	1	8QT302	0.000	
4	  C2	-0.833	25.337	10.914	C.3	1	8QT302	0.000	
5	  N2	2.084	28.227	8.751	N.2	1	8QT302	0.000	
6	  C3	-0.653	26.845	10.755	C.3	1	8QT302	0.000	
7	  N3	3.615	29.355	7.414	N.pl3	1	8QT302	0.000	
8	  C4	0.875	28.178	9.361	C.2	1	8QT302	0.000	
9	  N4	5.664	25.244	6.107	N.2	1	8QT302	0.000	
10	  C5	2.413	29.288	7.994	C.2	1	8QT302	0.000	
11	  N5	1.529	31.525	7.144	N.2	1	8QT302	0.000	
12	  C6	4.731	28.492	7.768	C.3	1	8QT302	0.000	
13	  N6	-0.453	31.289	8.207	N.2	1	8QT302	0.000	
14	  C7	4.989	27.462	6.697	C.2	1	8QT302	0.000	
15	  N7	-0.092	29.120	9.280	N.2	1	8QT302	0.000	
16	  C8	4.785	27.745	5.371	C.2	1	8QT302	0.000	
17	  C9	5.015	26.785	4.421	C.2	1	8QT302	0.000	
18	 C10	5.443	25.566	4.822	C.2	1	8QT302	0.000	
19	 C11	5.431	26.200	7.014	C.2	1	8QT302	0.000	
20	 C12	1.477	30.312	7.834	C.2	1	8QT302	0.000	
21	 C13	0.374	32.065	7.440	C.2	1	8QT302	0.000	
22	 C14	-1.780	31.647	8.734	C.3	1	8QT302	0.000	
23	 C15	-1.668	31.929	10.210	C.3	1	8QT302	0.000	
24	 C16	-2.811	30.572	8.419	C.3	1	8QT302	0.000	
25	 C17	0.282	30.164	8.516	C.2	1	8QT302	0.000	
26	 C18	-0.861	27.623	12.072	C.3	1	8QT302	0.000	
27	 C19	-2.239	27.407	12.651	C.3	1	8QT302	0.000	
28	 H01	0.405	24.278	9.539	 H	1	8QT302	0.000	
29	 H02	-1.271	23.686	9.637	 H	1	8QT302	0.000	
30	 H03	-0.912	25.209	8.787	 H	1	8QT302	0.000	
31	 H04	-0.069	24.993	11.611	 H	1	8QT302	0.000	
32	 H05	-1.841	25.145	11.283	 H	1	8QT302	0.000	
33	 H06	-1.434	27.205	10.085	 H	1	8QT302	0.000	
34	 H07	4.483	27.971	8.693	 H	1	8QT302	0.000	
35	 H08	5.625	29.102	7.898	 H	1	8QT302	0.000	
36	 H09	4.439	28.735	5.072	 H	1	8QT302	0.000	
37	 H10	4.856	26.999	3.364	 H	1	8QT302	0.000	
38	 H11	5.618	24.805	4.062	 H	1	8QT302	0.000	
39	 H12	5.602	25.964	8.064	 H	1	8QT302	0.000	
40	 H13	0.091	33.061	7.100	 H	1	8QT302	0.000	
41	 H14	-2.135	32.552	8.241	 H	1	8QT302	0.000	
42	 H15	-1.187	32.896	10.359	 H	1	8QT302	0.000	
43	 H16	-2.663	31.946	10.654	 H	1	8QT302	0.000	
44	 H17	-1.071	31.150	10.685	 H	1	8QT302	0.000	
45	 H18	-3.702	31.036	7.996	 H	1	8QT302	0.000	
46	 H19	-2.393	29.867	7.700	 H	1	8QT302	0.000	
47	 H20	-3.077	30.044	9.335	 H	1	8QT302	0.000	
48	 H21	-0.704	28.664	11.789	 H	1	8QT302	0.000	
49	 H22	-2.957	27.279	11.841	 H	1	8QT302	0.000	
50	 H23	-2.235	26.515	13.277	 H	1	8QT302	0.000	
51	 H24	-2.521	28.272	13.252	 H	1	8QT302	0.000	
52	  HN	1.418	26.490	10.353	 H	1	8QT302	0.000	
53	 HN1	3.756	30.044	6.689	 H	1	8QT302	0.000	
54	  HO	0.871	27.724	12.997	 H	1	8QT302	0.000	
@<TRIPOS>BOND
1 1 4 1
2 1 28 1
3 1 29 1
4 1 30 1
5 2 6 1
6 2 52 1
7 3 54 1
8 4 31 1
9 4 32 1
10 4 6 1
11 6 26 1
12 6 33 1
13 7 53 1
14 2 8 1
15 5 8 ar
16 8 15 ar
17 5 10 ar
18 7 10 1
19 10 20 ar
20 7 12 1
21 12 14 1
22 12 34 1
23 12 35 1
24 13 25 ar
25 14 16 ar
26 16 17 ar
27 16 36 1
28 17 18 ar
29 17 37 1
30 9 18 ar
31 18 38 1
32 9 19 ar
33 14 19 ar
34 19 39 1
35 11 20 ar
36 20 25 ar
37 11 21 ar
38 13 21 ar
39 21 40 1
40 13 22 1
41 22 23 1
42 22 24 1
43 22 41 1
44 23 42 1
45 23 43 1
46 23 44 1
47 24 45 1
48 24 46 1
49 24 47 1
50 15 25 ar
51 3 26 1
52 26 27 1
53 26 48 1
54 27 49 1
55 27 50 1
56 27 51 1
@<TRIPOS>SUBSTRUCTURE
1	8QT302	1	GROUP	1 A	8QT
