6V7C
     RDKit          3D

 19 20  0  0  0  0  0  0  0  0999 V2000
   16.4150    9.1490   23.2020 O   0  0  0  0  0  0  0  0  0  0  0  0
   16.6050    8.1390   23.8740 C   0  0  0  0  0  0  0  0  0  0  0  0
   17.7970    7.7000   24.2140 O   0  0  0  0  0  0  0  0  0  0  0  0
   15.4670    7.2740   24.4590 C   0  0  2  0  0  0  0  0  0  0  0  0
   14.1960    7.8600   23.9250 N   0  0  0  0  0  0  0  0  0  0  0  0
   15.4010    7.2270   26.0000 C   0  0  0  0  0  0  0  0  0  0  0  0
   16.2010    5.9930   26.4370 C   0  0  1  0  0  0  0  0  0  0  0  0
   15.5100    5.3570   27.6340 C   0  0  0  0  0  0  0  0  0  0  0  0
   14.5890    4.3410   27.0260 N   0  0  0  0  0  0  0  0  0  0  0  0
   15.2470    3.8110   25.7910 C   0  0  0  0  0  0  0  0  0  0  0  0
   16.0750    4.9760   25.2740 C   0  0  1  0  0  0  0  0  0  0  0  0
   15.5110    5.7510   24.0590 C   0  0  2  0  0  0  0  0  0  0  0  0
   16.2320    5.4540   22.7440 C   0  0  0  0  0  0  0  0  0  0  0  0
   15.6520    4.3790   21.8300 C   0  0  0  0  0  0  0  0  0  0  0  0
   16.6040    3.9610   20.7000 C   0  0  0  0  0  0  0  0  0  0  0  0
   16.0610    2.6760   19.9490 B   0  0  2  0  0  0  0  0  0  0  0  0
   14.6350    2.6400   19.6040 O   0  0  0  0  0  0  0  0  0  0  0  0
   16.1670    1.4410   20.7330 O   0  0  0  0  0  0  0  0  0  0  0  0
   16.8700    2.4640   18.7030 O   0  0  0  0  0  0  0  0  0  0  0  0
 16 15  1  0
 16 17  1  6
 16 18  1  0
 16 19  1  0
  4  2  1  0
  4  5  1  6
  4  6  1  0
  4 12  1  0
  2  1  2  0
  2  3  1  0
 15 14  1  0
 12 11  1  0
 12 13  1  6
 11  7  1  0
 11 10  1  1
  7  6  1  6
  7  8  1  0
  8  9  1  0
 10  9  1  0
 13 14  1  0
M  CHG  3   5   1   9   1  16  -1
M  END
$$$$
