4gv1
     RDKit          3D

 56 59  0  0  0  0  0  0  0  0999 V2000
  -16.1850   -0.4780    9.5900 Cl  0  0  0  0  0  0  0  0  0  0  0  0
  -16.7230    0.6360   10.7890 C   0  0  0  0  0  0  0  0  0  0  0  0
  -18.0150    0.5540   11.2850 C   0  0  0  0  0  0  0  0  0  0  0  0
  -18.4180    1.4630   12.2500 C   0  0  0  0  0  0  0  0  0  0  0  0
  -15.8340    1.6050   11.2380 C   0  0  0  0  0  0  0  0  0  0  0  0
  -16.2390    2.5110   12.2170 C   0  0  0  0  0  0  0  0  0  0  0  0
  -17.5340    2.4390   12.7240 C   0  0  0  0  0  0  0  0  0  0  0  0
  -18.0120    3.4110   13.7970 C   0  0  2  0  0  0  0  0  0  0  0  0
  -18.3850    2.6590   15.0960 C   0  0  2  0  0  0  0  0  0  0  0  0
  -18.7820    3.5840   16.2550 C   0  0  2  0  0  0  0  0  0  0  0  0
  -17.7080    4.4200   16.6410 O   0  0  0  0  0  0  0  0  0  0  0  0
  -19.1830    4.1310   13.2710 N   0  0  0  0  0  0  0  0  0  0  0  0
  -19.0740    5.1350   12.3450 C   0  0  0  0  0  0  0  0  0  0  0  0
  -17.9650    5.4540   11.9130 O   0  0  0  0  0  0  0  0  0  0  0  0
  -20.3800    5.7800   11.8600 C   0  0  2  0  0  0  0  0  0  0  0  0
  -20.0940    6.9710   10.9410 C   0  0  1  0  0  0  0  0  0  0  0  0
  -19.5770    6.5580    9.5390 C   0  0  2  0  0  0  0  0  0  0  0  0
  -21.1720    6.2410   13.0230 N   0  0  1  0  0  0  0  0  0  0  0  0
  -21.1950    4.6930   11.0970 C   0  0  1  0  0  0  0  0  0  0  0  0
  -20.5100    4.3260    9.7760 C   0  0  1  0  0  0  0  0  0  0  0  0
  -20.5900    5.5900    9.0610 N   0  0  0  0  0  0  0  0  0  0  0  0
  -21.6660    6.0240    8.2730 C   0  0  0  0  0  0  0  0  0  0  0  0
  -21.6200    7.3640    7.9470 N   0  0  0  0  0  0  0  0  0  0  0  0
  -22.6390    7.9730    7.2530 C   0  0  0  0  0  0  0  0  0  0  0  0
  -23.7110    7.2450    6.8310 N   0  0  0  0  0  0  0  0  0  0  0  0
  -22.7820    5.2800    7.8780 C   0  0  0  0  0  0  0  0  0  0  0  0
  -23.2330    3.9630    7.9850 C   0  0  0  0  0  0  0  0  0  0  0  0
  -24.4320    3.8200    7.3100 C   0  0  0  0  0  0  0  0  0  0  0  0
  -24.7380    5.0480    6.8510 N   0  0  0  0  0  0  0  0  0  0  0  0
  -23.7630    5.9140    7.1610 C   0  0  0  0  0  0  0  0  0  0  0  0
  -18.6950   -0.2040   10.9260 H   0  0  0  0  0  0  0  0  0  0  0  0
  -19.4240    1.4180   12.6400 H   0  0  0  0  0  0  0  0  0  0  0  0
  -14.8350    1.6560   10.8310 H   0  0  0  0  0  0  0  0  0  0  0  0
  -15.5540    3.2630   12.5790 H   0  0  0  0  0  0  0  0  0  0  0  0
  -17.2180    4.1260   14.0120 H   0  0  0  0  0  0  0  0  0  0  0  0
  -17.5250    2.0660   15.4090 H   0  0  0  0  0  0  0  0  0  0  0  0
  -19.2160    1.9860   14.8850 H   0  0  0  0  0  0  0  0  0  0  0  0
  -19.0810    2.9750   17.1080 H   0  0  0  0  0  0  0  0  0  0  0  0
  -19.6240    4.2030   15.9460 H   0  0  0  0  0  0  0  0  0  0  0  0
  -20.1010    3.8750   13.6050 H   0  0  0  0  0  0  0  0  0  0  0  0
  -21.0160    7.5390   10.8150 H   0  0  0  0  0  0  0  0  0  0  0  0
  -19.3490    7.6100   11.4160 H   0  0  0  0  0  0  0  0  0  0  0  0
  -18.5950    6.0900    9.6100 H   0  0  0  0  0  0  0  0  0  0  0  0
  -19.5380    7.4240    8.8780 H   0  0  0  0  0  0  0  0  0  0  0  0
  -21.2710    3.8010   11.7190 H   0  0  0  0  0  0  0  0  0  0  0  0
  -22.1950    5.0730   10.8900 H   0  0  0  0  0  0  0  0  0  0  0  0
  -19.4760    4.0200    9.9330 H   0  0  0  0  0  0  0  0  0  0  0  0
  -21.0680    3.5490    9.2530 H   0  0  0  0  0  0  0  0  0  0  0  0
  -22.5900    9.0310    7.0420 H   0  0  0  0  0  0  0  0  0  0  0  0
  -22.7220    3.1730    8.5160 H   0  0  0  0  0  0  0  0  0  0  0  0
  -25.0030    2.9130    7.1790 H   0  0  0  0  0  0  0  0  0  0  0  0
  -25.5810    5.2830    6.3460 H   0  0  0  0  0  0  0  0  0  0  0  0
  -20.7690    7.0920   13.3890 H   0  0  0  0  0  0  0  0  0  0  0  0
  -22.1240    6.4170   12.7340 H   0  0  0  0  0  0  0  0  0  0  0  0
  -21.1640    5.5290   13.7390 H   0  0  0  0  0  0  0  0  0  0  0  0
  -17.2360    4.0180   17.3740 H   0  0  0  0  0  0  0  0  0  0  0  0
 26 27  1  0
 26 30  2  0
 26 22  1  0
 17 16  1  0
 17 21  1  0
 17 43  1  1
 17 44  1  0
 16 15  1  0
 16 41  1  6
 16 42  1  0
 15 13  1  1
 15 18  1  0
 15 19  1  0
 19 20  1  0
 19 45  1  1
 19 46  1  0
 20 21  1  0
 20 47  1  1
 20 48  1  0
 13 12  1  0
 13 14  2  0
 30 29  1  0
 30 25  1  0
  8 12  1  0
  8  7  1  0
  8  9  1  0
  8 35  1  1
  9 10  1  0
  9 36  1  1
  9 37  1  0
 10 11  1  0
 10 38  1  1
 10 39  1  0
  7  4  2  0
  7  6  1  0
  4  3  1  0
  4 32  1  0
  3  2  2  0
  3 31  1  0
  2  5  1  0
  2  1  1  0
  5  6  2  0
  5 33  1  0
  6 34  1  0
 22 21  1  0
 22 23  2  0
 24 23  1  0
 24 25  2  0
 24 49  1  0
 28 27  2  0
 28 29  1  0
 28 51  1  0
 27 50  1  0
 18 53  1  1
 54 18  1  0
 55 18  1  0
 40 12  1  0
 56 11  1  0
 52 29  1  0
M  CHG  1  18   1
M  END
