7K4G
     RDKit          3D

 15 15  0  0  0  0  0  0  0  0999 V2000
   15.9840    7.1320   24.6660 C   0  0  1  0  0  0  0  0  0  0  0  0
   16.9890    8.0550   23.9040 C   0  0  0  0  0  0  0  0  0  0  0  0
   13.6350    6.4780   24.4990 C   0  0  0  0  0  0  0  0  0  0  0  0
   14.5180    5.2420   24.6580 C   0  0  0  0  0  0  0  0  0  0  0  0
   16.6620    8.9770   23.1780 O   0  0  0  0  0  0  0  0  0  0  0  0
   18.2240    7.7200   24.1530 O   0  0  0  0  0  0  0  0  0  0  0  0
   14.5840    7.6550   24.5100 N   0  0  0  0  0  0  0  0  0  0  0  0
   15.9080    5.6820   24.1790 C   0  0  1  0  0  0  0  0  0  0  0  0
   16.1430    5.5330   22.6620 C   0  0  0  0  0  0  0  0  0  0  0  0
   16.1750    4.0990   22.1270 C   0  0  0  0  0  0  0  0  0  0  0  0
   16.6730    3.9870   20.6850 C   0  0  0  0  0  0  0  0  0  0  0  0
   16.1540    2.6920   20.0070 B   0  0  1  0  0  0  0  0  0  0  0  0
   16.4760    1.4600   20.7620 O   0  0  0  0  0  0  0  0  0  0  0  0
   14.6980    2.6820   19.8090 O   0  0  0  0  0  0  0  0  0  0  0  0
   16.7210    2.5170   18.6700 O   0  0  0  0  0  0  0  0  0  0  0  0
 12 11  1  0
 12 13  1  1
 12 14  1  0
 12 15  1  0
 11 10  1  0
 10  9  1  0
  8  9  1  6
  8  1  1  0
  8  4  1  0
  1  2  1  6
  1  7  1  0
  2  5  2  0
  2  6  1  0
  3  4  1  0
  3  7  1  0
M  CHG  1  12  -1
M  END
$$$$
