@<TRIPOS>MOLECULE
6inl_A_ligand.pdb
32 34 1 0 0
SMALL
AMBER ff14SB


@<TRIPOS>ATOM
      1 N1          2.4864   29.3589    8.7280 N.ar      1 AJR   -0.1949
      2 N3          2.1027   33.0334    8.4614 N.ar      1 AJR   -0.1831
      3 C4          1.2425   29.1476    9.2217 C.ar      1 AJR    0.2441
      4 C5          0.9243   33.5356    8.8577 C.ar      1 AJR    0.0753
      5 C6         -1.2292   32.7770    9.8093 C.3       1 AJR    0.1502
      6 C7         -1.2662   32.5999   11.3263 C.3       1 AJR   -0.0333
      7 C8         -2.3091   31.9212    9.1892 C.3       1 AJR   -0.0333
      8 C10        -0.4565   27.6188   10.2020 C.3       1 AJR    0.0483
      9 C13         5.1149   29.7838    7.9936 C.3       1 AJR   -0.0209
     10 C15         5.6133   29.7849    5.5354 C.ar      1 AJR   -0.0396
     11 C17         5.4565   27.8051    4.1650 C.ar      1 AJR    0.1942
     12 C20         6.4962   27.5484    1.9789 C.3       1 AJR    0.0918
     13 O2          3.4995   25.7961    9.3874 O.3       1 AJR   -0.3130
     14 C12         2.4195   26.2937   10.1445 C.3       1 AJR    0.0728
     15 C9          1.5674   26.7295    8.9827 C.3       1 AJR    0.0483
     16 N5          0.8119   27.8464    9.5027 N.pl3     1 AJR   -0.1481
     17 C11        -0.3697   28.0534   11.6569 C.3       1 AJR    0.0728
     18 O1         -1.6323   27.7344   12.2784 O.3       1 AJR   -0.3130
     19 C1          2.8709   30.6264    8.4351 C.ar      1 AJR    0.1626
     20 C2          1.9855   31.6851    8.6080 C.ar      1 AJR    0.1571
     21 N4          0.1105   32.5440    9.2364 N.ar      1 AJR   -0.1846
     22 C3          0.7531   31.4113    9.1467 C.ar      1 AJR    0.1720
     23 N2          0.3530   30.1377    9.4436 N.ar      1 AJR   -0.1942
     24 N6          4.0792   30.8512    8.0283 N.pl3     1 AJR   -0.2618
     25 C14         5.2264   29.0801    6.6574 C.ar      1 AJR    0.1321
     26 C19         4.9387   27.7293    6.5158 C.ar      1 AJR   -0.0396
     27 C18         5.0749   27.0918    5.2900 C.ar      1 AJR   -0.0243
     28 O3          5.5409   27.1378    2.9671 O.3       1 AJR   -0.2404
     29 C16         5.7412   29.1852    4.2979 C.ar      1 AJR   -0.0243
     30 HN6         4.3273   31.7820    7.7244 H         1 AJR    0.1642
     31 H2          4.2301   26.4176    9.4244 H         1 AJR    0.2313
     32 H1         -1.4959   27.5656   13.2128 H         1 AJR    0.2313
@<TRIPOS>BOND
     1   19   20 ar
     2   19    1 ar
     3   19   24 1
     4    8   16 1
     5    8   17 1
     6   17   18 1
     7   14   13 1
     8   14   15 1
     9    9   25 1
    10    9   24 1
    11   25   10 ar
    12   25   26 ar
    13   10   29 ar
    14   29   11 ar
    15   11   27 ar
    16   11   28 1
    17   27   26 ar
    18   20    2 ar
    19   20   22 ar
    20   12   28 1
    21   22   21 ar
    22   22   23 ar
    23    3   23 ar
    24    3   16 1
    25    3    1 ar
    26    4   21 ar
    27    4    2 ar
    28    5   21 1
    29    5    7 1
    30    5    6 1
    31   15   16 1
    32   32   18 1
    33   31   13 1
    34   30   24 1
@<TRIPOS>SUBSTRUCTURE
     1 AJR     1 RESIDUE           4 A     AJR     0 ROOT
