6CM4_ligand
     RDKit          3D

 58 62  0  0  0  0  0  0  0  0999 V2000
    5.7980    4.5200  -12.8980 C   0  0  1  0  0  0  0  0  0  0  0  0
    7.1440    4.0330  -13.3650 C   0  0  0  0  0  0  0  0  0  0  0  0
    8.2620    4.6000  -12.9090 C   0  0  0  0  0  0  0  0  0  0  0  0
    8.2060    5.7460  -11.8970 C   0  0  1  0  0  0  0  0  0  0  0  0
    8.7980    5.2360  -10.5560 C   0  0  1  0  0  0  0  0  0  0  0  0
    8.8820    6.2720   -9.4860 N   0  0  2  0  0  0  0  0  0  0  0  0
    9.8570    7.3230   -9.9030 C   0  0  2  0  0  0  0  0  0  0  0  0
   10.0850    8.3470   -8.7770 C   0  0  1  0  0  0  0  0  0  0  0  0
   10.5980    7.5820   -7.5530 C   0  0  2  0  0  0  0  0  0  0  0  0
    9.5690    6.5280   -7.1200 C   0  0  1  0  0  0  0  0  0  0  0  0
    9.3630    5.5650   -8.2800 C   0  0  2  0  0  0  0  0  0  0  0  0
   10.9780    8.5130   -6.4340 C   0  0  0  0  0  0  0  0  0  0  0  0
   11.0470    9.8420   -6.5210 N   0  0  0  0  0  0  0  0  0  0  0  0
   11.4040   10.3280   -5.4310 O   0  0  0  0  0  0  0  0  0  0  0  0
   11.6040    9.3870   -4.5610 C   0  0  0  0  0  0  0  0  0  0  0  0
   11.3460    8.1840   -5.1480 C   0  0  0  0  0  0  0  0  0  0  0  0
   11.4800    6.9760   -4.4820 C   0  0  0  0  0  0  0  0  0  0  0  0
   11.8930    7.0420   -3.1520 C   0  0  0  0  0  0  0  0  0  0  0  0
   12.1580    8.2710   -2.5380 C   0  0  0  0  0  0  0  0  0  0  0  0
   12.0170    9.4710   -3.2390 C   0  0  0  0  0  0  0  0  0  0  0  0
    9.5440    4.0890  -13.3910 C   0  0  0  0  0  0  0  0  0  0  0  0
   10.7140    4.6530  -12.9830 O   0  0  0  0  0  0  0  0  0  0  0  0
    9.5520    3.0330  -14.3060 N   0  0  0  0  0  0  0  0  0  0  0  0
   10.8280    2.5500  -14.8120 C   0  0  2  0  0  0  0  0  0  0  0  0
   10.6590    1.6890  -16.0720 C   0  0  2  0  0  0  0  0  0  0  0  0
    9.6330    0.6130  -15.7710 C   0  0  1  0  0  0  0  0  0  0  0  0
    8.2570    1.2840  -15.6410 C   0  0  1  0  0  0  0  0  0  0  0  0
    8.3110    2.4650  -14.7030 C   0  0  0  0  0  0  0  0  0  0  0  0
    7.2090    2.9460  -14.2700 N   0  0  0  0  0  0  0  0  0  0  0  0
   12.5550    8.2900   -1.2570 F   0  0  0  0  0  0  0  0  0  0  0  0
    7.9740    6.6800   -9.3170 H   0  0  0  0  0  0  0  0  0  0  0  0
   11.5010    7.0510   -7.8560 H   0  0  0  0  0  0  0  0  0  0  0  0
   11.2750    6.0330   -4.9680 H   0  0  0  0  0  0  0  0  0  0  0  0
   12.0100    6.1290   -2.5860 H   0  0  0  0  0  0  0  0  0  0  0  0
   12.2210   10.4230   -2.7720 H   0  0  0  0  0  0  0  0  0  0  0  0
    5.0130    3.9400  -13.3830 H   0  0  0  0  0  0  0  0  0  0  0  0
    5.7240    4.4000  -11.8170 H   0  0  0  0  0  0  0  0  0  0  0  0
    5.6830    5.5730  -13.1560 H   0  0  0  0  0  0  0  0  0  0  0  0
    8.7920    6.5900  -12.2620 H   0  0  0  0  0  0  0  0  0  0  0  0
    7.1710    6.0540  -11.7480 H   0  0  0  0  0  0  0  0  0  0  0  0
    8.1700    4.4220  -10.1940 H   0  0  0  0  0  0  0  0  0  0  0  0
    9.7990    4.8470  -10.7430 H   0  0  0  0  0  0  0  0  0  0  0  0
    9.4690    7.8400  -10.7810 H   0  0  0  0  0  0  0  0  0  0  0  0
   10.8060    6.8510  -10.1560 H   0  0  0  0  0  0  0  0  0  0  0  0
   10.8230    9.0850   -9.0900 H   0  0  0  0  0  0  0  0  0  0  0  0
    9.1460    8.8440   -8.5340 H   0  0  0  0  0  0  0  0  0  0  0  0
    9.9400    5.9850   -6.2510 H   0  0  0  0  0  0  0  0  0  0  0  0
    8.6250    7.0150   -6.8740 H   0  0  0  0  0  0  0  0  0  0  0  0
   10.3100    5.0770   -8.5090 H   0  0  0  0  0  0  0  0  0  0  0  0
    8.6320    4.8100   -7.9920 H   0  0  0  0  0  0  0  0  0  0  0  0
   11.3090    1.9510  -14.0390 H   0  0  0  0  0  0  0  0  0  0  0  0
   11.4630    3.4040  -15.0470 H   0  0  0  0  0  0  0  0  0  0  0  0
   11.6110    1.2290  -16.3360 H   0  0  0  0  0  0  0  0  0  0  0  0
   10.3100    2.3100  -16.8970 H   0  0  0  0  0  0  0  0  0  0  0  0
    9.6130   -0.1150  -16.5820 H   0  0  0  0  0  0  0  0  0  0  0  0
    9.8880    0.1140  -14.8360 H   0  0  0  0  0  0  0  0  0  0  0  0
    7.9340    1.6260  -16.6240 H   0  0  0  0  0  0  0  0  0  0  0  0
    7.5390    0.5570  -15.2610 H   0  0  0  0  0  0  0  0  0  0  0  0
  1  2  1  0
  1 36  1  6
  1 37  1  0
  1 38  1  0
  2  3  2  0
  2 29  1  0
  3  4  1  0
  3 21  1  0
  4  5  1  0
  4 39  1  6
  4 40  1  0
  5  6  1  0
  5 41  1  1
  5 42  1  0
  6 31  1  1
  6  7  1  0
  6 11  1  0
  7  8  1  0
  7 43  1  6
  7 44  1  0
  8  9  1  0
  8 45  1  6
  8 46  1  0
  9 10  1  0
  9 12  1  0
  9 32  1  6
 10 11  1  0
 10 47  1  1
 10 48  1  0
 11 49  1  6
 11 50  1  0
 12 13  2  0
 12 16  1  0
 13 14  1  0
 14 15  1  0
 15 16  2  0
 15 20  1  0
 16 17  1  0
 17 18  2  0
 17 33  1  0
 18 19  1  0
 18 34  1  0
 19 20  2  0
 19 30  1  0
 20 35  1  0
 21 22  2  0
 21 23  1  0
 23 24  1  0
 23 28  1  0
 24 25  1  0
 24 51  1  1
 24 52  1  0
 25 26  1  0
 25 53  1  6
 25 54  1  0
 26 27  1  0
 26 55  1  6
 26 56  1  0
 27 28  1  0
 27 57  1  6
 27 58  1  0
 28 29  2  0
M  CHG  1   6   1
M  END
