7EUN
     RDKit          3D

 13 12  0  0  0  0  0  0  0  0999 V2000
   63.8670  -24.3600   83.3610 N   0  0  0  0  0  0  0  0  0  0  0  0
   64.8670  -24.1230   82.2740 C   0  0  2  0  0  0  0  0  0  0  0  0
   65.9820  -23.2220   82.7250 C   0  0  0  0  0  0  0  0  0  0  0  0
   66.9350  -23.0060   81.9420 O   0  0  0  0  0  0  0  0  0  0  0  0
   65.9760  -22.8200   83.9100 O   0  0  0  0  0  0  0  0  0  0  0  0
   64.1780  -23.6170   81.0070 C   0  0  0  0  0  0  0  0  0  0  0  0
   63.8530  -22.1210   81.0270 C   0  0  0  0  0  0  0  0  0  0  0  0
   62.9930  -21.6800   79.8350 C   0  0  0  0  0  0  0  0  0  0  0  0
   62.8520  -20.1680   79.7470 C   0  0  0  0  0  0  0  0  0  0  0  0
   61.5460  -19.6380   79.0220 B   0  0  2  0  0  0  0  0  0  0  0  0
   61.3410  -18.1630   78.9960 O   0  0  0  0  0  0  0  0  0  0  0  0
   60.2630  -20.2150   79.4530 O   0  0  0  0  0  0  0  0  0  0  0  0
   61.6150  -20.0820   77.5360 O   0  0  0  0  0  0  0  0  0  0  0  0
 10  9  1  0
 10 11  1  6
 10 12  1  0
 10 13  1  0
  3  2  1  0
  3  4  2  0
  3  5  1  0
  2  1  1  1
  2  6  1  0
  6  7  1  0
  8  7  1  0
  8  9  1  0
M  CHG  1  10  -1
M  END
$$$$
