6V1M
     RDKit          3D

 17 19  0  0  0  0  0  0  0  0999 V2000
    9.6670   11.5040    5.4460 C   0  0  0  0  0  0  0  0  0  0  0  0
   12.9630   13.4830    5.6250 C   0  0  0  0  0  0  0  0  0  0  0  0
   12.0630   12.3670    5.4580 C   0  0  0  0  0  0  0  0  0  0  0  0
   15.4250   12.2000    5.9110 C   0  0  0  0  0  0  0  0  0  0  0  0
   14.3500   13.2060    5.4010 C   0  0  1  0  0  0  0  0  0  0  0  0
    9.9280   10.2780    5.6710 O   0  0  0  0  0  0  0  0  0  0  0  0
   13.8560    9.6020    4.0390 O   0  0  0  0  0  0  0  0  0  0  0  0
   13.5780   11.0320    4.0060 B   0  0  2  0  0  0  0  0  0  0  0  0
   10.6750   12.5970    5.6920 C   0  0  0  0  0  0  0  0  0  0  0  0
   10.2610   13.8820    6.0610 C   0  0  0  0  0  0  0  0  0  0  0  0
   11.1210   14.9810    6.2540 C   0  0  0  0  0  0  0  0  0  0  0  0
   12.4950   14.7540    6.0310 C   0  0  0  0  0  0  0  0  0  0  0  0
   14.7130   11.9230    4.5780 C   0  0  2  0  0  0  0  0  0  0  0  0
    8.8960   14.0940    6.2870 F   0  0  0  0  0  0  0  0  0  0  0  0
    8.5600   11.7950    4.8750 O   0  0  0  0  0  0  0  0  0  0  0  0
   12.4830   11.2180    5.1340 O   0  0  0  0  0  0  0  0  0  0  0  0
   13.0090   11.4390    2.7640 O   0  0  0  0  0  0  0  0  0  0  0  0
  8 13  1  0
  8  7  1  6
  8 16  1  0
  8 17  1  0
  1  9  1  0
  1  6  2  0
  1 15  1  0
  9  3  2  0
  9 10  1  0
 10 14  1  0
 10 11  2  0
 11 12  1  0
 12  2  2  0
  2  3  1  0
  2  5  1  0
  3 16  1  0
 13  4  1  1
 13  5  1  0
  5  4  1  1
M  CHG  1   8  -1
M  END
$$$$
