7KLK
     RDKit          3D

 16 16  0  0  0  0  0  0  0  0999 V2000
   18.1400    7.6380   24.2750 O   0  0  0  0  0  0  0  0  0  0  0  0
   17.0000    8.0240   24.0650 C   0  0  0  0  0  0  0  0  0  0  0  0
   16.6850    9.1280   23.4150 O   0  0  0  0  0  0  0  0  0  0  0  0
   15.7670    7.2100   24.5820 C   0  0  2  0  0  0  0  0  0  0  0  0
   15.7970    5.7140   24.2110 C   0  0  1  0  0  0  0  0  0  0  0  0
   14.5890    5.0410   24.8590 C   0  0  0  0  0  0  0  0  0  0  0  0
   13.2740    5.6580   24.3910 C   0  0  0  0  0  0  0  0  0  0  0  0
   13.2300    7.1360   24.6930 C   0  0  0  0  0  0  0  0  0  0  0  0
   14.4470    7.8190   24.1460 N   0  0  0  0  0  0  0  0  0  0  0  0
   16.0690    5.5620   22.7100 C   0  0  0  0  0  0  0  0  0  0  0  0
   15.8480    4.1690   22.1460 C   0  0  0  0  0  0  0  0  0  0  0  0
   16.4720    3.9520   20.7680 C   0  0  0  0  0  0  0  0  0  0  0  0
   16.1140    2.6830   19.9200 B   0  0  2  0  0  0  0  0  0  0  0  0
   16.3830    1.4050   20.5390 O   0  0  0  0  0  0  0  0  0  0  0  0
   16.8160    2.4940   18.6110 O   0  0  0  0  0  0  0  0  0  0  0  0
   14.6620    2.6320   19.6550 O   0  0  0  0  0  0  0  0  0  0  0  0
 13 12  1  0
 13 14  1  1
 13 15  1  0
 13 16  1  0
  4  2  1  6
  4  5  1  0
  4  9  1  0
  5  6  1  0
  5 10  1  6
  6  7  1  0
  7  8  1  0
  8  9  1  0
 10 11  1  0
 11 12  1  0
  2  1  2  0
  2  3  1  0
M  CHG  1  13  -1
M  END
$$$$
