@<TRIPOS>MOLECULE
5iu7_A_ligand.pdb
33 37 1 0 0
SMALL
AMBER ff14SB


@<TRIPOS>ATOM
      1 C10        33.2495    9.5315  -28.2636 C.3       1 6DY   -0.0020
      2 C13        34.2652    9.9278  -25.6425 C.3       1 6DY    0.0409
      3 C15        31.9356    6.4652  -28.5513 C.ar      1 6DY   -0.0415
      4 C17        32.8737    4.3147  -29.1397 C.ar      1 6DY   -0.0013
      5 C21        34.0122   14.8398  -21.1796 C.ar      1 6DY    0.2494
      6 C23        33.2855   15.0475  -19.1253 C.ar      1 6DY    0.2143
      7 C18        34.0555    4.7367  -28.5221 C.ar      1 6DY   -0.0081
      8 C19        34.1572    6.0056  -27.9445 C.ar      1 6DY   -0.0415
      9 C16        31.8116    5.2143  -29.1398 C.ar      1 6DY   -0.0081
     10 C12        34.3350    8.5559  -26.2934 C.3       1 6DY   -0.0020
     11 C14        33.0924    6.9393  -27.9105 C.ar      1 6DY    0.1009
     12 C11        33.1807    8.3426  -27.2987 C.3       1 6DY    0.1089
     13 N01        33.5170   11.1862  -20.9057 N.pl3     1 6DY   -0.3290
     14 C02        33.8378   12.4269  -21.4093 C.2       1 6DY    0.2095
     15 N03        34.3174   12.5581  -22.6624 N.2       1 6DY   -0.1786
     16 C04        34.6378   13.8418  -23.1721 C.2       1 6DY    0.2641
     17 N05        35.1279   13.8452  -24.4407 N.2       1 6DY   -0.1533
     18 C06        35.3365   12.7483  -25.2874 C.2       1 6DY    0.0919
     19 C07        34.0309   12.3086  -25.9555 C.3       1 6DY    0.0604
     20 N08        34.3153   11.0272  -26.6635 N.4       1 6DY    0.4724
     21 C09        33.1362   10.8797  -27.5978 C.3       1 6DY    0.0409
     22 N20        34.4853   14.9520  -22.4544 N.2       1 6DY   -0.1743
     23 N22        33.7673   15.7530  -20.2260 N.ar      1 6DY   -0.1884
     24 N24        33.1920   13.7060  -19.3639 N.ar      1 6DY   -0.1472
     25 N25        33.6663   13.5437  -20.6172 N.ar      1 6DY   -0.1248
     26 C26        32.8865   15.6601  -17.9065 C.ar      1 6DY    0.1906
     27 C27        33.1138   16.8925  -17.3572 C.ar      1 6DY   -0.0207
     28 C28        32.4123   16.9662  -16.0800 C.ar      1 6DY    0.0103
     29 C29        31.7831   15.7056  -15.9405 C.ar      1 6DY    0.0734
     30 O30        32.0993   14.9381  -17.0556 O.2       1 6DY   -0.2466
     31 H08        35.1960   11.0505  -27.1587 H         1 6DY    0.2486
     32 H011       33.1594   11.1003  -19.9647 H         1 6DY    0.1455
     33 H012       33.6390   10.3626  -21.4768 H         1 6DY    0.1455
@<TRIPOS>BOND
     1   14   13 2
     2   14   15 2
     3   14   25 1
     4   16   15 2
     5   16   17 2
     6   16   22 2
     7   18   17 2
     8   18   19 1
     9   19   20 1
    10   21    1 1
    11   21   20 1
    12    1   12 1
    13   12   10 1
    14   12   11 1
    15   10    2 1
    16    2   20 1
    17   11    3 ar
    18   11    8 ar
    19    3    9 ar
    20    9    4 ar
    21    4    7 ar
    22    7    8 ar
    23    5   22 1
    24    5   23 ar
    25    5   25 ar
    26    6   23 ar
    27    6   24 ar
    28    6   26 1
    29   26   27 ar
    30   26   30 ar
    31   27   28 ar
    32   28   29 ar
    33   29   30 ar
    34   32   13 1
    35   33   13 1
    36   31   20 1
    37   24   25 ar
@<TRIPOS>SUBSTRUCTURE
     1 6DY     1 RESIDUE           4 A     6DY     0 ROOT
