6QOU
     RDKit          3D

 12 13  0  0  0  0  0  0  0  0999 V2000
  100.1250  101.7420   10.8580 C   0  0  0  0  0  0  0  0  0  0  0  0
   94.4110   98.8810   12.7780 O   0  0  0  0  0  0  0  0  0  0  0  0
   95.5680   98.0310   12.8820 B   0  0  0  0  0  0  0  0  0  0  0  0
   97.0390   98.6140   12.3540 C   0  0  0  0  0  0  0  0  0  0  0  0
   97.1940   99.9770   12.0540 C   0  0  0  0  0  0  0  0  0  0  0  0
   98.4410  100.4680   11.5920 C   0  0  0  0  0  0  0  0  0  0  0  0
   99.5130   99.6070   11.4340 C   0  0  0  0  0  0  0  0  0  0  0  0
   99.3610   98.2260   11.7390 C   0  0  0  0  0  0  0  0  0  0  0  0
   98.1250   97.7430   12.1970 C   0  0  0  0  0  0  0  0  0  0  0  0
  100.5950  100.4310   10.9620 C   0  0  0  0  0  0  0  0  0  0  0  0
   98.8350  101.7400   11.2400 N   0  0  0  0  0  0  0  0  0  0  0  0
   95.3240   96.6220   12.7750 O   0  0  0  0  0  0  0  0  0  0  0  0
  3 12  1  0
  3  2  1  0
  3  4  1  0
  4  9  1  0
  4  5  2  0
  5  6  1  0
  6 11  1  0
  6  7  2  0
  7  8  1  0
  7 10  1  0
  8  9  2  0
 10  1  2  0
  1 11  1  0
M  END
$$$$
