6QQR
     RDKit          3D

 12 13  0  0  0  0  0  0  0  0999 V2000
  -13.2190   -8.3340   23.9180 O   0  0  0  0  0  0  0  0  0  0  0  0
  -13.0730   -9.5800   24.5830 B   0  0  0  0  0  0  0  0  0  0  0  0
  -12.3550  -10.5990   23.9160 O   0  0  0  0  0  0  0  0  0  0  0  0
  -12.8480   -9.4990   26.1930 C   0  0  0  0  0  0  0  0  0  0  0  0
  -13.1700   -8.3280   26.8830 C   0  0  0  0  0  0  0  0  0  0  0  0
  -12.9430   -8.2780   28.2820 C   0  0  0  0  0  0  0  0  0  0  0  0
  -12.4070   -9.3700   28.9340 C   0  0  0  0  0  0  0  0  0  0  0  0
  -12.0740  -10.5590   28.2130 C   0  0  0  0  0  0  0  0  0  0  0  0
  -12.2950  -10.6080   26.8550 C   0  0  0  0  0  0  0  0  0  0  0  0
  -12.2830   -9.0720   30.2680 N   0  0  0  0  0  0  0  0  0  0  0  0
  -12.7200   -7.8380   30.5120 C   0  0  0  0  0  0  0  0  0  0  0  0
  -13.1450   -7.2860   29.3040 C   0  0  0  0  0  0  0  0  0  0  0  0
  2  1  1  0
  2  3  1  0
  2  4  1  0
  4  5  2  0
  4  9  1  0
  5  6  1  0
  6  7  2  0
  6 12  1  0
  7  8  1  0
  7 10  1  0
  8  9  2  0
 11 10  1  0
 11 12  2  0
M  END
$$$$
