6RVL
     RDKit          3D

 21 23  0  0  0  0  0  0  0  0999 V2000
   -6.7730    3.5930   16.2560 C   0  0  0  0  0  0  0  0  0  0  0  0
   -6.1220    4.5850   15.5460 C   0  0  0  0  0  0  0  0  0  0  0  0
   -4.9810    4.2820   14.8160 C   0  0  0  0  0  0  0  0  0  0  0  0
   -4.5100    2.9670   14.8020 C   0  0  0  0  0  0  0  0  0  0  0  0
   -5.1520    1.9420   15.5210 C   0  0  0  0  0  0  0  0  0  0  0  0
   -6.2930    2.2860   16.2490 C   0  0  0  0  0  0  0  0  0  0  0  0
   -6.7980    1.0900   16.9910 C   0  0  0  0  0  0  0  0  0  0  0  0
   -3.6070    0.1980   16.6290 O   0  0  0  0  0  0  0  0  0  0  0  0
   -0.3530    8.1050   12.8700 C   0  0  0  0  0  0  0  0  0  0  0  0
   -1.5300    7.5680   12.3740 C   0  0  0  0  0  0  0  0  0  0  0  0
   -0.2550    8.4700   14.1990 C   0  0  0  0  0  0  0  0  0  0  0  0
   -1.3340    8.2950   15.0420 C   0  0  0  0  0  0  0  0  0  0  0  0
   -2.5130    7.7560   14.5570 C   0  0  0  0  0  0  0  0  0  0  0  0
   -2.6210    7.3970   13.2170 C   0  0  0  0  0  0  0  0  0  0  0  0
   -6.2640    5.8920   12.4540 S   0  0  0  0  0  0  0  0  0  0  0  0
   -4.2980    5.3300   14.1490 N   0  0  0  0  0  0  0  0  0  0  0  0
   -3.8810    7.0240   12.6970 N   0  0  0  0  0  0  0  0  0  0  0  0
   -4.7320    6.0670   13.1090 C   0  0  0  0  0  0  0  0  0  0  0  0
   -4.8000    0.3830   15.7960 B   0  0  1  0  0  0  0  0  0  0  0  0
   -6.0070   -0.0100   16.5660 O   0  0  0  0  0  0  0  0  0  0  0  0
   -4.7330   -0.5030   14.6320 O   0  0  0  0  0  0  0  0  0  0  0  0
 19 20  1  0
 19  5  1  0
 19 21  1  6
 19  8  1  0
  5  4  1  0
  5  6  2  0
 10  9  2  0
 10 14  1  0
  9 11  1  0
 11 12  2  0
 12 13  1  0
 13 14  2  0
  4  3  2  0
  3 16  1  0
  3  2  1  0
  2  1  2  0
  1  6  1  0
  6  7  1  0
  7 20  1  0
 18 15  2  0
 18 16  1  0
 18 17  1  0
 14 17  1  0
M  CHG  1  19  -1
M  END
$$$$
