7K4H
     RDKit          3D

 18 19  0  0  0  0  0  0  0  0999 V2000
  -12.4080    7.0620   26.7100 C   0  0  1  0  0  0  0  0  0  0  0  0
  -12.3340    7.1590   28.2480 C   0  0  0  0  0  0  0  0  0  0  0  0
  -13.4210    6.3700   28.9620 C   0  0  0  0  0  0  0  0  0  0  0  0
  -11.2540    2.2350   20.7500 O   0  0  0  0  0  0  0  0  0  0  0  0
  -12.1140    5.3000   24.6780 C   0  0  0  0  0  0  0  0  0  0  0  0
  -12.0330    3.8730   24.1440 C   0  0  0  0  0  0  0  0  0  0  0  0
  -11.5330    3.8110   22.7020 C   0  0  0  0  0  0  0  0  0  0  0  0
  -10.0720    7.5780   26.1730 O   0  0  0  0  0  0  0  0  0  0  0  0
  -11.2460    7.9020   26.1190 C   0  0  0  0  0  0  0  0  0  0  0  0
  -11.6540    9.0030   25.5540 O   0  0  0  0  0  0  0  0  0  0  0  0
  -12.3420    5.5460   26.1840 C   0  0  2  0  0  0  0  0  0  0  0  0
  -13.7370    5.1820   26.7330 C   0  0  2  0  0  0  0  0  0  0  0  0
  -14.7150    6.2780   26.1620 C   0  0  0  0  0  0  0  0  0  0  0  0
  -13.8000    7.4790   26.1750 N   0  0  0  0  0  0  0  0  0  0  0  0
  -13.7040    5.0820   28.2360 N   0  0  0  0  0  0  0  0  0  0  0  0
  -11.9620    2.4720   22.0070 B   0  0  1  0  0  0  0  0  0  0  0  0
  -13.3910    2.4510   21.6380 O   0  0  0  0  0  0  0  0  0  0  0  0
  -11.6990    1.2650   22.8220 O   0  0  0  0  0  0  0  0  0  0  0  0
 16  4  1  6
 16  7  1  0
 16 17  1  0
 16 18  1  0
  1  9  1  6
  9  8  2  0
  9 10  1  0
  1  2  1  0
  1 11  1  0
  1 14  1  0
  2  3  1  0
  3 15  1  0
 12 13  1  1
 13 14  1  0
 12 11  1  0
 12 15  1  0
 11  5  1  6
  5  6  1  0
  6  7  1  0
M  CHG  1  16  -1
M  END
$$$$
