@<TRIPOS>MOLECULE
4o2b_AB_ATP_MG_ligand.pdb
30 32 1 0 0
SMALL
AMBER ff14SB


@<TRIPOS>ATOM
      1 O4         13.8589   55.2030   57.6092 O.2       1 LOC   -0.2618
      2 C12        14.8966   55.3935   58.2199 C.2       1 LOC    0.2928
      3 C13        14.9065   55.8160   59.6609 C.3       1 LOC    0.0029
      4 N1         16.0914   55.2378   57.6520 N.am      1 LOC   -0.2663
      5 C11        16.2476   54.7967   56.2755 C.3       1 LOC    0.1015
      6 C14        15.9882   53.3249   56.1276 C.2       1 LOC    0.0671
      7 C15        16.1890   52.5542   57.2093 C.2       1 LOC   -0.0547
      8 C10        17.6571   55.1214   55.7807 C.3       1 LOC   -0.0438
      9 C9         17.9762   54.5087   54.4155 C.3       1 LOC   -0.0508
     10 C8         16.8032   54.7079   53.4829 C.ar      1 LOC    0.0809
     11 C7         16.8608   55.6444   52.4474 C.ar      1 LOC   -0.0657
     12 C5         15.7927   55.8526   51.5713 C.ar      1 LOC    0.1713
     13 C3         14.5358   55.0764   51.7182 C.ar      1 LOC    0.1655
     14 C1         14.4274   54.0697   52.7959 C.ar      1 LOC    0.1389
     15 O1         13.2800   53.3425   52.9505 O.3       1 LOC   -0.2553
     16 C2         12.2789   53.8141   53.8507 C.3       1 LOC    0.0905
     17 O2         13.4920   55.2714   50.8579 O.3       1 LOC   -0.2526
     18 C4         13.3749   54.3937   49.7414 C.3       1 LOC    0.0906
     19 O3         15.8810   56.7803   50.5631 O.3       1 LOC   -0.2474
     20 C6         17.1421   57.3306   50.1899 C.3       1 LOC    0.0912
     21 C22        15.5873   53.8877   53.6993 C.ar      1 LOC    0.0498
     22 C21        15.5589   52.8791   54.8077 C.2       1 LOC    0.0546
     23 C20        15.1634   51.6468   54.4493 C.2       1 LOC   -0.0571
     24 C19        15.0109   50.4227   55.2243 C.2       1 LOC   -0.0301
     25 C17        15.3808   50.1681   56.4828 C.2       1 LOC    0.1992
     26 C16        16.0351   51.0988   57.3969 C.2       1 LOC    0.2616
     27 O5         16.4819   50.6240   58.4279 O.2       1 LOC   -0.2768
     28 O6         15.0961   48.8366   56.9906 O.3       1 LOC   -0.2448
     29 C18        14.5758   47.8389   56.1182 C.3       1 LOC    0.0913
     30 H1         16.9191   55.4337   58.1973 H         1 LOC    0.1574
@<TRIPOS>BOND
     1   14   21 ar
     2   14   13 ar
     3   14   15 1
     4    8    5 1
     5    8    9 1
     6    5    4 1
     7    5    6 1
     8    2    4 am
     9    2    3 1
    10    2    1 2
    11    6   22 2
    12    6    7 2
    13    7   26 2
    14   26   27 2
    15   26   25 2
    16   25   28 1
    17   25   24 2
    18   29   28 1
    19   24   23 2
    20   16   15 1
    21   23   22 2
    22   22   21 1
    23   21   10 ar
    24   13   12 ar
    25   13   17 1
    26   18   17 1
    27   12   19 1
    28   12   11 ar
    29   20   19 1
    30   11   10 ar
    31   10    9 1
    32   30    4 1
@<TRIPOS>SUBSTRUCTURE
     1 LOC     1 RESIDUE           4 B     LOC     0 ROOT
