6Q2Y
     RDKit          3D

 15 16  0  0  0  0  0  0  0  0999 V2000
   -9.2270    0.6720  -19.7860 C   0  0  0  0  0  0  0  0  0  0  0  0
   -7.6090    0.3950  -17.6940 C   0  0  0  0  0  0  0  0  0  0  0  0
   -7.2390    0.8040  -16.3590 C   0  0  0  0  0  0  0  0  0  0  0  0
   -8.0310    1.8360  -15.6360 C   0  0  0  0  0  0  0  0  0  0  0  0
   -8.7560    1.0050  -18.3740 C   0  0  0  0  0  0  0  0  0  0  0  0
   -9.5660    2.0060  -17.7040 C   0  0  0  0  0  0  0  0  0  0  0  0
   -9.1490    2.3810  -16.3530 C   0  0  0  0  0  0  0  0  0  0  0  0
   -9.9590    3.3530  -15.5180 C   0  0  0  0  0  0  0  0  0  0  0  0
   -9.1260    3.4280  -14.2520 C   0  0  0  0  0  0  0  0  0  0  0  0
   -9.3820    4.5230  -13.1150 B   0  0  2  0  0  0  0  0  0  0  0  0
   -8.6830    5.8780  -13.4040 O   0  0  0  0  0  0  0  0  0  0  0  0
   -8.8060    4.0610  -11.8220 O   0  0  0  0  0  0  0  0  0  0  0  0
  -10.7840    4.9180  -12.8750 O   0  0  0  0  0  0  0  0  0  0  0  0
   -7.8150    2.4020  -14.1190 S   0  0  0  0  0  0  0  0  0  0  0  0
   -9.1920   -0.7220  -20.1120 N   0  0  0  0  0  0  0  0  0  0  0  0
 10  9  1  0
 10 11  1  6
 10 12  1  0
 10 13  1  0
  5  1  1  0
  5  2  2  0
  5  6  1  0
  6  7  2  0
  7  4  1  0
  7  8  1  0
  8  9  2  0
  9 14  1  0
  4 14  1  0
  4  3  2  0
  3  2  1  0
  1 15  1  0
M  CHG  1  10  -1
M  END
$$$$
