3fuk
     RDKit          3D

 41 43  0  0  0  0  0  0  0  0999 V2000
  -36.3690   -3.7590    2.5380 O   0  0  0  0  0  0  0  0  0  0  0  0
  -35.2230   -4.1670    2.2180 C   0  0  0  0  0  0  0  0  0  0  0  0
  -34.2970   -4.1950    3.0580 O   0  0  0  0  0  0  0  0  0  0  0  0
  -34.9630   -4.6440    0.7980 C   0  0  2  0  0  0  0  0  0  0  0  0
  -33.5030   -4.9300    0.4550 C   0  0  1  0  0  0  0  0  0  0  0  0
  -32.6090   -3.6810    0.3700 C   0  0  2  0  0  0  0  0  0  0  0  0
  -35.4290   -3.6440   -0.2550 C   0  0  1  0  0  0  0  0  0  0  0  0
  -34.5970   -2.3800   -0.4460 C   0  0  1  0  0  0  0  0  0  0  0  0
  -33.1890   -2.7230   -0.5620 N   0  0  0  0  0  0  0  0  0  0  0  0
  -32.3930   -2.0500   -1.5960 C   0  0  2  0  0  0  0  0  0  0  0  0
  -30.9030   -2.1940   -1.2620 C   0  0  1  0  0  0  0  0  0  0  0  0
  -30.0730   -1.1100   -1.7170 O   0  0  0  0  0  0  0  0  0  0  0  0
  -29.1020   -0.6670   -0.8350 C   0  0  0  0  0  0  0  0  0  0  0  0
  -29.4110    0.3420    0.0840 C   0  0  0  0  0  0  0  0  0  0  0  0
  -27.8150   -1.2230   -0.8090 C   0  0  0  0  0  0  0  0  0  0  0  0
  -26.8650   -0.7640    0.1190 C   0  0  0  0  0  0  0  0  0  0  0  0
  -25.5160   -1.2000    0.3110 C   0  0  0  0  0  0  0  0  0  0  0  0
  -25.0580   -0.4070    1.3500 C   0  0  0  0  0  0  0  0  0  0  0  0
  -26.0600    0.4320    1.7530 N   0  0  0  0  0  0  0  0  0  0  0  0
  -27.1860    0.2330    1.0140 C   0  0  0  0  0  0  0  0  0  0  0  0
  -28.4620    0.7970    1.0020 C   0  0  0  0  0  0  0  0  0  0  0  0
  -35.5250   -5.5660    0.6500 H   0  0  0  0  0  0  0  0  0  0  0  0
  -33.0960   -5.5880    1.2230 H   0  0  0  0  0  0  0  0  0  0  0  0
  -33.4660   -5.4490   -0.5030 H   0  0  0  0  0  0  0  0  0  0  0  0
  -31.6170   -3.9690    0.0220 H   0  0  0  0  0  0  0  0  0  0  0  0
  -32.5290   -3.2240    1.3570 H   0  0  0  0  0  0  0  0  0  0  0  0
  -35.4530   -4.1660   -1.2120 H   0  0  0  0  0  0  0  0  0  0  0  0
  -36.4470   -3.3440   -0.0080 H   0  0  0  0  0  0  0  0  0  0  0  0
  -34.9200   -1.8700   -1.3530 H   0  0  0  0  0  0  0  0  0  0  0  0
  -34.7390   -1.7210    0.4100 H   0  0  0  0  0  0  0  0  0  0  0  0
  -33.4130   -3.4690   -1.2050 H   0  0  0  0  0  0  0  0  0  0  0  0
  -32.6580   -0.9930   -1.6290 H   0  0  0  0  0  0  0  0  0  0  0  0
  -32.5950   -2.5060   -2.5650 H   0  0  0  0  0  0  0  0  0  0  0  0
  -30.8040   -2.2650   -0.1790 H   0  0  0  0  0  0  0  0  0  0  0  0
  -30.5370   -3.1200   -1.7040 H   0  0  0  0  0  0  0  0  0  0  0  0
  -30.4000    0.7760    0.0830 H   0  0  0  0  0  0  0  0  0  0  0  0
  -27.5530   -2.0070   -1.5050 H   0  0  0  0  0  0  0  0  0  0  0  0
  -24.9800   -1.9680   -0.2280 H   0  0  0  0  0  0  0  0  0  0  0  0
  -24.0660   -0.4450    1.7750 H   0  0  0  0  0  0  0  0  0  0  0  0
  -28.7150    1.5820    1.6990 H   0  0  0  0  0  0  0  0  0  0  0  0
  -25.9760    1.1080    2.4980 H   0  0  0  0  0  0  0  0  0  0  0  0
 21 20  1  0
 21 14  2  0
 21 40  1  0
 11 10  1  0
 11 12  1  0
 11 34  1  1
 11 35  1  0
 10  9  1  0
 10 32  1  6
 10 33  1  0
  6  9  1  0
  6  5  1  0
  6 25  1  6
  6 26  1  0
  5  4  1  0
  5 23  1  1
  5 24  1  0
  4  2  1  0
  4  7  1  0
  4 22  1  6
  7  8  1  0
  7 27  1  6
  7 28  1  0
  8  9  1  0
  8 29  1  6
  8 30  1  0
  2  1  2  0
  2  3  1  0
 14 13  1  0
 14 36  1  0
 13 15  2  0
 13 12  1  0
 15 16  1  0
 15 37  1  0
 16 17  1  0
 16 20  2  0
 20 19  1  0
 17 18  2  0
 17 38  1  0
 18 19  1  0
 18 39  1  0
 31  9  1  0
 41 19  1  0
M  CHG  2   3  -1   9   1
M  END
