5U48
     RDKit          3D

 19 20  0  0  0  0  0  0  0  0999 V2000
  -22.5730   -0.9950  -30.6240 C   0  0  0  0  0  0  0  0  0  0  0  0
  -21.6080   -0.1960  -30.0310 C   0  0  0  0  0  0  0  0  0  0  0  0
  -21.5480   -0.0900  -28.6450 C   0  0  0  0  0  0  0  0  0  0  0  0
  -22.4560   -0.7800  -27.8590 C   0  0  0  0  0  0  0  0  0  0  0  0
  -23.4140   -1.5840  -28.4570 C   0  0  0  0  0  0  0  0  0  0  0  0
  -23.4760   -1.6890  -29.8370 C   0  0  0  0  0  0  0  0  0  0  0  0
  -22.4060   -0.6960  -26.3450 C   0  0  0  0  0  0  0  0  0  0  0  0
  -21.4850   -0.0580  -25.6090 C   0  0  0  0  0  0  0  0  0  0  0  0
  -21.4680   -0.0160  -24.0950 C   0  0  0  0  0  0  0  0  0  0  0  0
  -21.1300    1.1420  -23.4160 C   0  0  0  0  0  0  0  0  0  0  0  0
  -21.1200    1.1570  -22.0280 C   0  0  0  0  0  0  0  0  0  0  0  0
  -21.4380    0.0210  -21.3030 C   0  0  0  0  0  0  0  0  0  0  0  0
  -21.7650   -1.1350  -21.9870 C   0  0  0  0  0  0  0  0  0  0  0  0
  -21.7830   -1.1560  -23.3740 C   0  0  0  0  0  0  0  0  0  0  0  0
  -22.0920   -2.2960  -21.2760 O   0  0  0  0  0  0  0  0  0  0  0  0
  -20.7770    2.3360  -21.3540 O   0  0  0  0  0  0  0  0  0  0  0  0
  -23.7670   -1.8170  -32.8650 O   0  0  0  0  0  0  0  0  0  0  0  0
  -21.6240   -0.6040  -33.0900 O   0  0  0  0  0  0  0  0  0  0  0  0
  -22.6590   -1.1420  -32.2670 B   0  0  0  0  0  0  0  0  0  0  0  0
 19 17  1  0
 19  1  1  0
 19 18  1  0
  1  2  2  0
  1  6  1  0
  2  3  1  0
  3  4  2  0
  4  7  1  0
  4  5  1  0
  5  6  2  0
  7  8  2  3
  8  9  1  0
  9 14  1  0
  9 10  2  0
 10 11  1  0
 11 16  1  0
 11 12  2  0
 12 13  1  0
 13 14  2  0
 13 15  1  0
M  END
$$$$
