7K4J
     RDKit          3D

 17 18  0  0  0  0  0  0  0  0999 V2000
   13.3320    3.7300   25.5940 N   0  0  0  0  0  0  0  0  0  0  0  0
   14.7520    3.7280   25.0870 C   0  0  0  0  0  0  0  0  0  0  0  0
   14.3250    4.5870   23.8830 C   0  0  2  0  0  0  0  0  0  0  0  0
   14.9720    4.2090   22.5310 C   0  0  0  0  0  0  0  0  0  0  0  0
   14.5570    2.9170   21.8120 C   0  0  0  0  0  0  0  0  0  0  0  0
   15.0810    2.8120   20.3780 C   0  0  0  0  0  0  0  0  0  0  0  0
   14.9590    7.8780   22.6810 O   0  0  0  0  0  0  0  0  0  0  0  0
   15.2560    7.0410   23.5040 C   0  0  0  0  0  0  0  0  0  0  0  0
   16.4680    6.8200   23.9200 O   0  0  0  0  0  0  0  0  0  0  0  0
   14.2410    6.1110   24.2340 C   0  0  1  0  0  0  0  0  0  0  0  0
   12.8670    4.1230   24.1980 C   0  0  2  0  0  0  0  0  0  0  0  0
   11.9460    5.3380   24.0530 C   0  0  0  0  0  0  0  0  0  0  0  0
   12.8360    6.5440   23.9450 N   0  0  0  0  0  0  0  0  0  0  0  0
   14.5790    1.4860   19.6920 B   0  0  2  0  0  0  0  0  0  0  0  0
   13.0940    1.5280   19.5040 O   0  0  0  0  0  0  0  0  0  0  0  0
   14.8170    0.2240   20.3900 O   0  0  0  0  0  0  0  0  0  0  0  0
   15.2340    1.3120   18.3280 O   0  0  0  0  0  0  0  0  0  0  0  0
 14  6  1  0
 14 15  1  6
 14 16  1  0
 14 17  1  0
  8  7  2  0
  8  9  1  0
 10  8  1  6
 10  3  1  0
 10 13  1  0
 11 12  1  1
 12 13  1  0
 11  1  1  0
 11  3  1  0
  2  1  1  0
  2  3  1  0
  3  4  1  6
  4  5  1  0
  5  6  1  0
M  CHG  1  14  -1
M  END
$$$$
