6PHT
     RDKit          3D

 13 12  0  0  0  0  0  0  0  0999 V2000
   27.8090   35.4360   73.4320 C   0  0  0  0  0  0  0  0  0  0  0  0
   26.6190   35.9910   74.1610 B   0  0  0  0  0  0  0  0  0  0  0  0
   34.3330   33.9620   72.0710 C   0  0  0  0  0  0  0  0  0  0  0  0
   34.1940   34.8460   73.2600 C   0  0  0  0  0  0  0  0  0  0  0  0
   33.3680   35.9630   72.9210 C   0  0  0  0  0  0  0  0  0  0  0  0
   31.1070   35.3490   72.5220 C   0  0  0  0  0  0  0  0  0  0  0  0
   30.0860   35.1620   71.4410 C   0  0  0  0  0  0  0  0  0  0  0  0
   29.0480   36.2050   71.5350 C   0  0  0  0  0  0  0  0  0  0  0  0
   28.7190   36.4550   72.9340 C   0  0  0  0  0  0  0  0  0  0  0  0
   33.7710   32.6970   72.2740 N   0  0  0  0  0  0  0  0  0  0  0  0
   32.3770   35.5280   71.9550 N   0  0  0  0  0  0  0  0  0  0  0  0
   26.3650   37.3120   74.0690 O   0  0  0  0  0  0  0  0  0  0  0  0
   25.8680   35.1510   74.8850 O   0  0  0  0  0  0  0  0  0  0  0  0
  2  1  1  0
  2 12  1  0
  2 13  1  0
  3  4  1  0
  3 10  1  0
  4  5  1  0
  5 11  1  0
  6  7  1  0
  6 11  1  0
  7  8  1  0
  8  9  1  0
  9  1  1  0
M  CHG  2  10   1  11   1
M  END
$$$$
