@<TRIPOS>MOLECULE
5rh2_A_ligand.pdb
19 20 1 0 0
SMALL
AMBER ff14SB


@<TRIPOS>ATOM
      1 N1          6.4094   -2.1341   11.8055 N.am      1 UH7   -0.2654
      2 C4          6.3942   -0.8617    9.7280 C.ar      1 UH7    0.0238
      3 C5          5.8203   -1.1736   10.9593 C.ar      1 UH7    0.1215
      4 C6          7.5566   -1.9580   12.4888 C.2       1 UH7    0.2864
      5 C7          7.9290   -3.1101   13.4022 C.3       1 UH7   -0.0279
      6 C8          9.3938   -3.0612   13.7618 C.ar      1 UH7    0.1168
      7 C10        11.1510   -2.3851   15.2698 C.ar      1 UH7   -0.0148
      8 C13        10.3563   -3.3853   12.8071 C.ar      1 UH7   -0.0657
      9 CL         12.8885   -3.6829   11.9215 Cl        1 UH7   -0.0650
     10 C12        11.6965   -3.2009   13.0984 C.ar      1 UH7    0.1352
     11 C11        12.1096   -2.6773   14.3082 C.ar      1 UH7   -0.0322
     12 C9          9.8072   -2.5882   15.0005 C.ar      1 UH7   -0.0359
     13 O           8.2399   -0.9414   12.4107 O.2       1 UH7   -0.2624
     14 C1          4.6972   -0.4453   11.3930 C.ar      1 UH7    0.1078
     15 C           4.0046   -0.7399   12.6977 C.3       1 UH7   -0.0488
     16 N           5.9436    0.1193    8.9387 N.ar      1 UH7   -0.1520
     17 C3          4.8796    0.8122    9.3629 C.ar      1 UH7    0.0504
     18 C2          4.2375    0.5702   10.5604 C.ar      1 UH7   -0.0290
     19 H1          5.9360   -3.0205   11.9076 H         1 UH7    0.1574
@<TRIPOS>BOND
     1   15   14 1
     2   14   18 ar
     3   14    3 ar
     4    7   11 ar
     5    7   12 ar
     6   11   10 ar
     7   10    8 ar
     8   10    9 1
     9    8    6 ar
    10   18   17 ar
    11   17   16 ar
    12    2   16 ar
    13    2    3 ar
    14    3    1 1
    15    4    1 am
    16    4    5 1
    17    4   13 2
    18    5    6 1
    19    6   12 ar
    20   19    1 1
@<TRIPOS>SUBSTRUCTURE
     1 UH7     1 RESIDUE           4 A     UH7     0 ROOT
