6JN6
     RDKit          3D

 21 22  0  0  0  0  0  0  0  0999 V2000
  -28.7370   12.8990   66.5690 C   0  0  0  0  0  0  0  0  0  0  0  0
  -27.3610   11.9930   68.1160 C   0  0  0  0  0  0  0  0  0  0  0  0
  -28.5620   11.8030   67.4450 C   0  0  0  0  0  0  0  0  0  0  0  0
  -27.6450   13.7110   66.7190 C   0  0  0  0  0  0  0  0  0  0  0  0
  -29.5430   10.6600   67.6350 C   0  0  0  0  0  0  0  0  0  0  0  0
  -30.1970   10.8070   69.0120 C   0  0  1  0  0  0  0  0  0  0  0  0
  -31.1140   11.9710   69.0900 N   0  0  0  0  0  0  0  0  0  0  0  0
  -30.7270   13.3320   69.5060 C   0  0  0  0  0  0  0  0  0  0  0  0
  -29.6180   13.6340   69.8060 O   0  0  0  0  0  0  0  0  0  0  0  0
  -31.7720   14.4470   69.5700 C   0  0  1  0  0  0  0  0  0  0  0  0
  -31.6790   15.2420   70.8940 C   0  0  0  0  0  0  0  0  0  0  0  0
  -32.1950   14.2020   72.2910 S   0  0  0  0  0  0  0  0  0  0  0  0
  -31.5230   15.4030   68.4030 C   0  0  0  0  0  0  0  0  0  0  0  0
  -30.9330    9.4280   69.2870 B   0  0  0  0  0  0  0  0  0  0  0  0
  -30.2570    8.2790   69.0710 O   0  0  0  0  0  0  0  0  0  0  0  0
  -32.2780    9.3550   69.3050 O   0  0  0  0  0  0  0  0  0  0  0  0
  -26.8130   13.1420   67.6680 O   0  0  0  0  0  0  0  0  0  0  0  0
  -29.7570   13.2320   65.6530 C   0  0  0  0  0  0  0  0  0  0  0  0
  -29.6460   14.4010   64.9100 C   0  0  0  0  0  0  0  0  0  0  0  0
  -28.5390   15.2340   65.0560 C   0  0  0  0  0  0  0  0  0  0  0  0
  -27.5340   14.8990   65.9540 C   0  0  0  0  0  0  0  0  0  0  0  0
 14  6  1  0
 14 15  1  0
 14 16  1  0
  5  3  1  0
  6  5  1  6
  3  1  1  0
  3  2  2  0
  2 17  1  0
  4 17  1  0
  4 21  1  0
  4  1  2  0
  1 18  1  0
 18 19  2  0
 19 20  1  0
  6  7  1  0
 20 21  2  0
  8  7  1  0
  8  9  2  0
  8 10  1  0
 10 11  1  0
 10 13  1  6
 11 12  1  0
M  END
$$$$
