6QAF
     RDKit          3D

 21 21  0  0  0  0  0  0  0  0999 V2000
    5.7520  -21.8490    7.4220 O   0  0  0  0  0  0  0  0  0  0  0  0
    5.8190  -23.0690    7.2800 C   0  0  0  0  0  0  0  0  0  0  0  0
    6.7150  -23.9290    8.1390 C   0  0  1  0  0  0  0  0  0  0  0  0
    8.0900  -23.4010    8.0420 N   0  0  0  0  0  0  0  0  0  0  0  0
    6.2300  -23.9200    9.5890 C   0  0  0  0  0  0  0  0  0  0  0  0
    5.0800  -23.6710    6.3580 N   0  0  0  0  0  0  0  0  0  0  0  0
    5.5460  -24.8110    5.5640 C   0  0  0  0  0  0  0  0  0  0  0  0
    4.3180  -25.2250    4.7660 C   0  0  1  0  0  0  0  0  0  0  0  0
    4.6930  -25.2030    3.3320 N   0  0  0  0  0  0  0  0  0  0  0  0
    3.8820  -26.6280    5.1550 C   0  0  0  0  0  0  0  0  0  0  0  0
    3.7130  -26.8850    6.3830 O   0  0  0  0  0  0  0  0  0  0  0  0
    3.7340  -27.5030    4.2270 O   0  0  0  0  0  0  0  0  0  0  0  0
    3.2620  -24.1440    5.0050 C   0  0  2  0  0  0  0  0  0  0  0  0
    3.6160  -23.5130    6.3370 C   0  0  0  0  0  0  0  0  0  0  0  0
    1.8420  -24.7080    4.9840 C   0  0  0  0  0  0  0  0  0  0  0  0
    0.7760  -23.6130    5.1460 C   0  0  0  0  0  0  0  0  0  0  0  0
   -0.6800  -24.0510    5.0680 C   0  0  0  0  0  0  0  0  0  0  0  0
   -1.7490  -22.9060    4.8190 B   0  0  2  0  0  0  0  0  0  0  0  0
   -1.5820  -22.2700    3.5040 O   0  0  0  0  0  0  0  0  0  0  0  0
   -1.6270  -21.8790    5.8800 O   0  0  0  0  0  0  0  0  0  0  0  0
   -3.1290  -23.4220    4.7630 O   0  0  0  0  0  0  0  0  0  0  0  0
 18 17  1  0
 18 19  1  6
 18 20  1  0
 18 21  1  0
 14  6  1  0
 14 13  1  0
 10  8  1  0
 10 11  2  0
 10 12  1  0
  2  1  2  0
  2  3  1  0
  2  6  1  0
  3  4  1  0
  3  5  1  1
  7  6  1  0
  7  8  1  0
  8  9  1  6
  8 13  1  0
 13 15  1  6
 15 16  1  0
 16 17  2  3
M  CHG  1  18  -1
M  END
$$$$
