4HXQ
     RDKit          3D

 22 22  0  0  0  0  0  0  0  0999 V2000
  -19.9800   15.9630  -10.4950 O   0  0  0  0  0  0  0  0  0  0  0  0
  -20.2280   16.3940  -11.6250 C   0  0  0  0  0  0  0  0  0  0  0  0
  -19.5570   15.9790  -12.5890 O   0  0  0  0  0  0  0  0  0  0  0  0
  -21.3240   17.4270  -11.8700 C   0  0  1  0  0  0  0  0  0  0  0  0
  -21.3190   17.8040  -13.2820 N   0  0  0  0  0  0  0  0  0  0  0  0
  -22.3250   18.6340  -13.9260 C   0  0  0  0  0  0  0  0  0  0  0  0
  -22.7030   16.8710  -11.5170 C   0  0  0  0  0  0  0  0  0  0  0  0
  -22.9470   15.4360  -11.9760 C   0  0  0  0  0  0  0  0  0  0  0  0
  -24.4050   14.9910  -11.8310 C   0  0  0  0  0  0  0  0  0  0  0  0
  -24.6010   13.5360  -12.2480 C   0  0  0  0  0  0  0  0  0  0  0  0
  -26.1210   13.0630  -12.3330 B   0  0  1  0  0  0  0  0  0  0  0  0
  -26.6270   13.6730  -13.6250 O   0  0  0  0  0  0  0  0  0  0  0  0
  -26.3980   11.6190  -12.6610 O   0  0  0  0  0  0  0  0  0  0  0  0
  -27.0820   13.6250  -11.3290 O   0  0  0  0  0  0  0  0  0  0  0  0
  -21.0870   18.6470  -10.9800 C   0  0  0  0  0  0  0  0  0  0  0  0
  -19.7740   19.3590  -11.2980 C   0  0  0  0  0  0  0  0  0  0  0  0
  -19.8410   20.7660  -10.8370 N   0  0  0  0  0  0  0  0  0  0  0  0
  -20.0740   20.8340   -9.3920 C   0  0  0  0  0  0  0  0  0  0  0  0
  -20.3450   22.2740   -9.0000 C   0  0  0  0  0  0  0  0  0  0  0  0
  -19.1750   23.1800   -9.3640 C   0  0  0  0  0  0  0  0  0  0  0  0
  -18.8160   22.9880  -10.8300 C   0  0  0  0  0  0  0  0  0  0  0  0
  -18.6150   21.5110  -11.1500 C   0  0  0  0  0  0  0  0  0  0  0  0
 11 10  1  0
 11 12  1  6
 11 13  1  0
 11 14  1  0
  4  2  1  0
  4  5  1  0
  4  7  1  1
  4 15  1  0
 15 16  1  0
 17 16  1  1
 22 17  1  0
 22 21  1  0
 21 20  1  0
 20 19  1  0
 19 18  1  0
 18 17  1  0
  6  5  1  0
  7  8  1  0
  8  9  1  0
  9 10  1  0
  2  1  2  0
  2  3  1  0
M  CHG  1  11  -1
M  END
$$$$
