6L40
     RDKit          3D

 28 29  0  0  0  0  0  0  0  0999 V2000
  -31.7670   64.3650   -5.4140 C   0  0  0  0  0  0  0  0  0  0  0  0
  -34.5190   67.7440   -4.0070 N   0  0  0  0  0  0  0  0  0  0  0  0
  -32.9420   71.1380   -1.7520 C   0  0  2  0  0  0  0  0  0  0  0  0
  -33.6550   72.2940   -1.0300 C   0  0  0  0  0  0  0  0  0  0  0  0
  -35.4180   74.1430   -0.6920 C   0  0  0  0  0  0  0  0  0  0  0  0
  -35.3560   66.7940   -3.2360 C   0  0  0  0  0  0  0  0  0  0  0  0
  -36.6890   66.2760   -3.8690 C   0  0  0  0  0  0  0  0  0  0  0  0
  -39.0110   65.4310   -4.9510 C   0  0  0  0  0  0  0  0  0  0  0  0
  -36.8170   66.0920   -5.2490 C   0  0  0  0  0  0  0  0  0  0  0  0
  -31.3950   71.4220   -1.6360 B   0  0  0  0  0  0  0  0  0  0  0  0
  -33.2870   68.3660   -3.5310 C   0  0  2  0  0  0  0  0  0  0  0  0
  -33.5720   69.8050   -3.9660 C   0  0  0  0  0  0  0  0  0  0  0  0
  -32.0160   68.0530   -4.3320 C   0  0  0  0  0  0  0  0  0  0  0  0
  -31.4980   66.5910   -4.5080 C   0  0  0  0  0  0  0  0  0  0  0  0
  -30.2610   66.2180   -3.9690 C   0  0  0  0  0  0  0  0  0  0  0  0
  -29.7830   64.9120   -4.1440 C   0  0  0  0  0  0  0  0  0  0  0  0
  -30.5310   63.9860   -4.8630 C   0  0  0  0  0  0  0  0  0  0  0  0
  -32.2410   65.6660   -5.2420 C   0  0  0  0  0  0  0  0  0  0  0  0
  -34.9020   73.0400   -1.6890 C   0  0  1  0  0  0  0  0  0  0  0  0
  -34.6030   73.7640   -3.0510 C   0  0  0  0  0  0  0  0  0  0  0  0
  -38.8990   65.6240   -3.5790 C   0  0  0  0  0  0  0  0  0  0  0  0
  -33.3900   71.0490   -3.1440 N   0  0  0  0  0  0  0  0  0  0  0  0
  -37.7280   66.0520   -3.0930 N   0  0  0  0  0  0  0  0  0  0  0  0
  -37.9810   65.6660   -5.7450 N   0  0  0  0  0  0  0  0  0  0  0  0
  -33.9650   69.9720   -5.0660 O   0  0  0  0  0  0  0  0  0  0  0  0
  -30.9250   71.8280   -0.4420 O   0  0  0  0  0  0  0  0  0  0  0  0
  -30.5170   70.8790   -2.5000 O   0  0  0  0  0  0  0  0  0  0  0  0
  -35.0330   66.4380   -2.1420 O   0  0  0  0  0  0  0  0  0  0  0  0
 10  3  1  0
 10 26  1  0
 10 27  1  0
 11  2  1  0
 11 12  1  0
 11 13  1  1
 12 22  1  0
 12 25  2  0
 13 14  1  0
 14 15  1  0
 14 18  2  0
 15 16  2  0
 16 17  1  0
 17  1  2  0
  1 18  1  0
  3  4  1  6
  3 22  1  0
  4 19  1  0
 19  5  1  1
 19 20  1  0
  6  2  1  0
  6  7  1  0
  6 28  2  0
  7  9  1  0
  7 23  2  0
 21  8  2  0
 21 23  1  0
  8 24  1  0
  9 24  2  0
M  END
$$$$
