@<TRIPOS>MOLECULE
5ca1_AB_ATP_MG_ligand.pdb
23 25 1 0 0
SMALL
AMBER ff14SB


@<TRIPOS>ATOM
      1 O2         16.4358   55.1005   44.5521 O.2       1 NZO   -0.2409
      2 C13        17.3784   54.3350   44.6096 C.2       1 NZO    0.3706
      3 O3         18.3389   54.3437   43.5911 O.3       1 NZO   -0.2067
      4 C14        18.0464   55.2464   42.5549 C.3       1 NZO    0.0953
      5 N3         17.5062   53.4003   45.6652 N.am      1 NZO   -0.2317
      6 C12        16.6684   53.4087   46.8067 C.ar      1 NZO    0.1928
      7 N1         15.6864   54.2742   47.0379 N.ar      1 NZO   -0.2076
      8 C8         15.1062   53.9489   48.2496 C.ar      1 NZO    0.1401
      9 C7         14.0433   54.5024   48.9925 C.ar      1 NZO   -0.0689
     10 N2         16.7583   52.5280   47.8005 N.ar      1 NZO   -0.2775
     11 C9         15.7830   52.8438   48.7302 C.ar      1 NZO    0.1184
     12 C10        15.4115   52.2707   49.9725 C.ar      1 NZO   -0.0420
     13 C11        14.3573   52.8204   50.7034 C.ar      1 NZO   -0.0474
     14 C6         13.6712   53.9441   50.2121 C.ar      1 NZO    0.1183
     15 C5         12.5237   54.5913   50.9560 C.2       1 NZO    0.2246
     16 O1         11.8363   55.3936   50.3599 O.2       1 NZO   -0.2858
     17 C4         12.1842   54.2900   52.4005 C.ar      1 NZO    0.1205
     18 C3         10.9178   54.4567   52.9953 C.ar      1 NZO   -0.0407
     19 C2         10.8634   54.1025   54.3865 C.ar      1 NZO   -0.0100
     20 C1         12.0939   53.6631   54.9134 C.ar      1 NZO   -0.0148
     21 S          13.1712   53.7301   53.6361 S.2       1 NZO   -0.0241
     22 HN3        18.2279   52.6970   45.6010 H         1 NZO    0.1611
     23 HN2        17.4186   51.7667   47.8640 H         1 NZO    0.1564
@<TRIPOS>BOND
     1   20   19 ar
     2   20   21 ar
     3   12   11 ar
     4   12   13 ar
     5   13   14 ar
     6    6    5 1
     7    6    7 ar
     8    6   10 ar
     9    2    1 2
    10    2    5 am
    11    2    3 1
    12    4    3 1
    13   19   18 ar
    14   18   17 ar
    15   17   15 1
    16   17   21 ar
    17   15   14 1
    18   15   16 2
    19   14    9 ar
    20    9    8 ar
    21    8    7 ar
    22    8   11 ar
    23   11   10 ar
    24   23   10 1
    25   22    5 1
@<TRIPOS>SUBSTRUCTURE
     1 NZO     1 RESIDUE           4 B     NZO     0 ROOT
