6V7E
     RDKit          3D

 20 21  0  0  0  0  0  0  0  0999 V2000
   12.6350    4.1190   26.5080 N   0  0  0  0  0  0  0  0  0  0  0  0
   14.8110    4.4670   27.3840 C   0  0  0  0  0  0  0  0  0  0  0  0
   13.8380    4.4220   28.5610 C   0  0  0  0  0  0  0  0  0  0  0  0
   12.4490    4.5090   27.9490 C   0  0  0  0  0  0  0  0  0  0  0  0
   14.5370    3.9420   24.8650 C   0  0  0  0  0  0  0  0  0  0  0  0
   13.9980    4.6810   23.6360 C   0  0  1  0  0  0  0  0  0  0  0  0
   14.4020    3.1560   21.5890 C   0  0  0  0  0  0  0  0  0  0  0  0
   16.3220    6.5910   24.1130 O   0  0  0  0  0  0  0  0  0  0  0  0
   15.2110    6.9440   23.7420 C   0  0  0  0  0  0  0  0  0  0  0  0
   15.0110    8.0120   23.0110 O   0  0  0  0  0  0  0  0  0  0  0  0
   13.8900    6.2000   24.0990 C   0  0  1  0  0  0  0  0  0  0  0  0
   12.6790    6.8700   23.6000 N   0  0  0  0  0  0  0  0  0  0  0  0
   14.8060    4.4130   22.3570 C   0  0  0  0  0  0  0  0  0  0  0  0
   15.1130    2.9990   20.2440 C   0  0  0  0  0  0  0  0  0  0  0  0
   14.7000    1.6560   19.5750 B   0  0  1  0  0  0  0  0  0  0  0  0
   15.2680    1.5310   18.2040 O   0  0  0  0  0  0  0  0  0  0  0  0
   15.1540    0.5230   20.3560 O   0  0  0  0  0  0  0  0  0  0  0  0
   13.2440    1.4270   19.3670 O   0  0  0  0  0  0  0  0  0  0  0  0
   13.9990    4.6790   26.1000 C   0  0  1  0  0  0  0  0  0  0  0  0
   13.9340    6.1480   25.6450 C   0  0  0  0  0  0  0  0  0  0  0  0
 15 14  1  0
 15 16  1  6
 15 17  1  0
 15 18  1  0
 11  9  1  0
 11 12  1  1
 11 20  1  0
 11  6  1  0
  9 10  2  0
  9  8  1  0
  7 13  1  0
  7 14  1  0
 19 20  1  6
 19  1  1  0
 19  2  1  0
 19  5  1  0
  2  3  1  0
  3  4  1  0
  4  1  1  0
  5  6  1  0
  6 13  1  6
M  CHG  1  15  -1
M  END
$$$$
