@<TRIPOS>MOLECULE
2fvd_A_ligand.pdb
33 35 1 0 0
SMALL
AMBER ff14SB


@<TRIPOS>ATOM
      1 N1          6.3852   27.9492    7.1163 N.3       1 LIA    0.0935
      2 C2          5.7070   28.1247    5.8017 C.3       1 LIA    0.1297
      3 C3          4.9738   29.4828    5.7774 C.3       1 LIA   -0.0130
      4 C4          3.9416   29.5710    6.9308 C.3       1 LIA    0.1276
      5 C5          4.6175   29.2171    8.3011 C.3       1 LIA   -0.0130
      6 C6          5.3775   27.8762    8.2162 C.3       1 LIA    0.1297
      7 N7          3.3887   30.9321    6.9424 N.pl3     1 LIA   -0.2111
      8 C8          2.2551   31.0775    7.6866 C.ar      1 LIA    0.2155
      9 N9          1.4737   30.0100    8.0054 N.ar      1 LIA   -0.1728
     10 C10         0.4072   30.1762    8.7253 C.ar      1 LIA    0.0059
     11 C11        -0.0109   31.4740    9.2221 C.ar      1 LIA    0.1211
     12 C12         0.8405   32.5833    8.8535 C.ar      1 LIA    0.1270
     13 N13         1.9598   32.3480    8.0893 N.ar      1 LIA   -0.2044
     14 C14        -1.2105   31.5884   10.0379 C.2       1 LIA    0.2116
     15 O15        -1.6086   32.6998   10.4272 O.2       1 LIA   -0.2875
     16 C16        -1.9570   30.4170   10.4389 C.ar      1 LIA    0.1033
     17 C17        -3.2872   30.2160    9.9245 C.ar      1 LIA    0.1817
     18 C18        -4.0410   29.0601   10.2982 C.ar      1 LIA    0.2096
     19 C19        -3.4884   28.0881   11.1828 C.ar      1 LIA   -0.0255
     20 C20        -2.1774   28.2638   11.7083 C.ar      1 LIA   -0.0315
     21 C21        -1.3845   29.4231   11.3529 C.ar      1 LIA    0.1580
     22 O22        -0.0819   29.6382   11.8557 O.3       1 LIA   -0.2489
     23 C23         0.5689   28.4193   12.2939 C.3       1 LIA    0.0911
     24 F24        -3.8385   31.0996    9.0977 F         1 LIA   -0.2021
     25 F25        -5.2591   28.8835    9.8217 F         1 LIA   -0.1938
     26 N26         0.5986   33.8540    9.2251 N.pl3     1 LIA   -0.2856
     27 S27         7.3751   26.5707    7.1028 S.o2      1 LIA   -0.0196
     28 C28         6.4183   25.0223    6.9359 C.3       1 LIA    0.5438
     29 O29         8.0950   26.5330    8.3562 O.2       1 LIA   -0.4654
     30 O30         8.3095   26.6805    6.0158 O.2       1 LIA   -0.4654
     31 H7          3.8140   31.6985    6.4403 H         1 LIA    0.1387
     32 H261        1.1493   34.6082    8.8419 H         1 LIA    0.1258
     33 H262       -0.1360   34.0532    9.8890 H         1 LIA    0.1258
@<TRIPOS>BOND
     1   10    9 ar
     2   10   11 ar
     3   11   12 ar
     4   11   14 1
     5   12   13 ar
     6   12   26 1
     7   14   15 2
     8   14   16 1
     9   16   21 ar
    10   16   17 ar
    11   17   24 1
    12   17   18 ar
    13   18   19 ar
    14   18   25 1
    15   19   20 ar
    16    2    1 1
    17    2    3 1
    18   20   21 ar
    19   21   22 1
    20   23   22 1
    21   28   27 1
    22    3    4 1
    23    4    7 1
    24    4    5 1
    25    5    6 1
    26    6    1 1
    27    8    9 ar
    28    8    7 1
    29    8   13 ar
    30   32   26 1
    31   33   26 1
    32   31    7 1
    33    1   27 1
    34   29   27 2
    35   30   27 2
@<TRIPOS>SUBSTRUCTURE
     1 LIA     1 RESIDUE           4 A     LIA     0 ROOT
