6XVH
     RDKit          3D

 13 13  0  0  0  0  0  0  0  0999 V2000
   15.8180   -1.4160   16.1180 N   0  0  0  0  0  0  0  0  0  0  0  0
   15.3150   -0.0410   16.8850 S   0  0  2  0  0  0  0  0  0  0  0  0
   15.7030   -0.0490   18.2600 O   0  0  0  0  0  0  0  0  0  0  0  0
   13.9040    0.1350   16.7550 O   0  0  0  0  0  0  0  0  0  0  0  0
   16.2090    1.4390   15.9970 C   0  0  0  0  0  0  0  0  0  0  0  0
   15.4700    2.5050   15.4170 C   0  0  0  0  0  0  0  0  0  0  0  0
   16.1360    3.6080   14.7540 C   0  0  0  0  0  0  0  0  0  0  0  0
   17.5450    3.6540   14.6660 C   0  0  0  0  0  0  0  0  0  0  0  0
   18.2900    2.5990   15.2410 C   0  0  0  0  0  0  0  0  0  0  0  0
   17.6230    1.4970   15.9020 C   0  0  0  0  0  0  0  0  0  0  0  0
   18.2800    4.8680   13.9370 B   0  0  0  0  0  0  0  0  0  0  0  0
   17.5980    5.9560   13.4300 O   0  0  0  0  0  0  0  0  0  0  0  0
   19.6390    4.8650   13.7080 O   0  0  0  0  0  0  0  0  0  0  0  0
 11 13  1  0
 11 12  1  0
 11  8  1  0
  5  6  2  0
  5  2  1  0
  5 10  1  0
  6  7  1  0
  7  8  2  0
  8  9  1  0
  9 10  2  0
  2  1  1  6
  3  2  2  0
  4  2  2  0
M  END
$$$$
