@<TRIPOS>MOLECULE
5rgx_A_ligand.pdb
20 21 1 0 0
SMALL
AMBER ff14SB


@<TRIPOS>ATOM
      1 N1          5.8439   -2.0655   12.1980 N.am      1 UGP   -0.2654
      2 C4          5.9149   -0.8982   10.0452 C.ar      1 UGP    0.0238
      3 C5          5.2939   -1.1628   11.2679 C.ar      1 UGP    0.1215
      4 C6          6.9735   -1.8583   12.8972 C.2       1 UGP    0.2864
      5 C7          7.3601   -2.9969   13.8195 C.3       1 UGP   -0.0279
      6 C8          8.8343   -2.9037   14.1363 C.ar      1 UGP    0.1167
      7 C10        10.6181   -2.3188   15.6538 C.ar      1 UGP   -0.0150
      8 C13        12.1095   -3.4306   12.4310 C.1       1 UGP    0.1171
      9 N2         12.8674   -3.7443   11.6358 N.1       1 UGP   -0.1910
     10 C12        11.1394   -3.0702   13.4327 C.ar      1 UGP    0.1466
     11 C11        11.5576   -2.6117   14.6798 C.ar      1 UGP   -0.0333
     12 C9          9.2675   -2.4653   15.3823 C.ar      1 UGP   -0.0360
     13 C14         9.7799   -3.2133   13.1616 C.ar      1 UGP   -0.0667
     14 O           7.6698   -0.8542   12.7825 O.2       1 UGP   -0.2624
     15 C1          4.0929   -0.5049   11.5736 C.ar      1 UGP    0.1078
     16 C           3.3892   -0.7039   12.8925 C.3       1 UGP   -0.0488
     17 N           5.4228   -0.0419    9.1420 N.ar      1 UGP   -0.1520
     18 C3          4.2722    0.5718    9.4399 C.ar      1 UGP    0.0504
     19 C2          3.5885    0.3785   10.6242 C.ar      1 UGP   -0.0290
     20 H1          5.3527   -2.9346   12.3517 H         1 UGP    0.1574
@<TRIPOS>BOND
     1   16   15 1
     2   15    3 ar
     3   15   19 ar
     4    7   11 ar
     5    7   12 ar
     6   11   10 ar
     7   10    8 1
     8   10   13 ar
     9    8    9 3
    10   13    6 ar
    11   19   18 ar
    12   18   17 ar
    13    2    3 ar
    14    2   17 ar
    15    3    1 1
    16    4    1 am
    17    4    5 1
    18    4   14 2
    19    5    6 1
    20    6   12 ar
    21   20    1 1
@<TRIPOS>SUBSTRUCTURE
     1 UGP     1 RESIDUE           4 A     UGP     0 ROOT
