4IXV
     RDKit          3D

 27 28  0  0  0  0  0  0  0  0999 V2000
   38.3980   83.0600   80.1910 Cl  0  0  0  0  0  0  0  0  0  0  0  0
   36.9570   83.5060   79.2060 C   0  0  0  0  0  0  0  0  0  0  0  0
   36.8040   84.8170   78.7510 C   0  0  0  0  0  0  0  0  0  0  0  0
   35.6910   85.1660   77.9910 C   0  0  0  0  0  0  0  0  0  0  0  0
   35.9920   82.5440   78.8930 C   0  0  0  0  0  0  0  0  0  0  0  0
   34.8840   82.8970   78.1260 C   0  0  0  0  0  0  0  0  0  0  0  0
   34.7240   84.2080   77.6770 C   0  0  0  0  0  0  0  0  0  0  0  0
   33.5130   84.5730   76.8340 C   0  0  0  0  0  0  0  0  0  0  0  0
   33.8970   85.5420   75.7850 N   0  0  0  0  0  0  0  0  0  0  0  0
   32.6480   86.1370   75.2650 C   0  0  0  0  0  0  0  0  0  0  0  0
   32.8510   87.0500   74.0540 C   0  0  0  0  0  0  0  0  0  0  0  0
   34.6800   84.8420   74.7390 C   0  0  0  0  0  0  0  0  0  0  0  0
   34.2190   85.1410   73.3110 C   0  0  0  0  0  0  0  0  0  0  0  0
   34.0410   86.6470   73.1940 C   0  0  1  0  0  0  0  0  0  0  0  0
   33.9560   87.1660   71.7510 C   0  0  2  0  0  0  0  0  0  0  0  0
   34.1880   88.6500   71.8510 C   0  0  0  0  0  0  0  0  0  0  0  0
   35.2340   89.0460   72.4050 O   0  0  0  0  0  0  0  0  0  0  0  0
   33.2980   89.4190   71.4270 O   0  0  0  0  0  0  0  0  0  0  0  0
   32.6160   86.9860   71.1730 N   0  0  0  0  0  0  0  0  0  0  0  0
   35.0170   86.4710   70.9030 C   0  0  0  0  0  0  0  0  0  0  0  0
   35.1930   87.0260   69.5060 C   0  0  0  0  0  0  0  0  0  0  0  0
   36.5080   86.5420   68.8700 C   0  0  0  0  0  0  0  0  0  0  0  0
   36.8660   87.4210   67.6640 C   0  0  0  0  0  0  0  0  0  0  0  0
   37.3880   86.5500   66.4410 B   0  0  2  0  0  0  0  0  0  0  0  0
   37.9170   87.6300   65.4620 O   0  0  0  0  0  0  0  0  0  0  0  0
   36.3560   85.8990   65.5480 O   0  0  0  0  0  0  0  0  0  0  0  0
   38.6210   85.7240   66.6930 O   0  0  0  0  0  0  0  0  0  0  0  0
 24 26  1  6
 24 27  1  0
 24 23  1  0
 24 25  1  0
 16 15  1  0
 16 17  2  0
 16 18  1  0
 14 11  1  6
 14 13  1  0
 14 15  1  0
 11 10  1  0
 10  9  1  0
 12  9  1  0
 12 13  1  0
  8  7  1  0
  9  8  1  1
  7  4  2  0
  7  6  1  0
  4  3  1  0
  3  2  2  0
  2  1  1  0
  2  5  1  0
  5  6  2  0
 15 19  1  6
 15 20  1  0
 20 21  1  0
 21 22  1  0
 22 23  1  0
M  CHG  1  24  -1
M  END
$$$$
