@<TRIPOS>MOLECULE
5nm4_A_ligand.pdb
29 32 1 0 0
SMALL
AMBER ff14SB


@<TRIPOS>ATOM
      1 C1         35.2643   11.2562  -27.5152 C.ar      1 ZMA   -0.0403
      2 C2         35.6955   10.0934  -28.1389 C.ar      1 ZMA   -0.0258
      3 C3         35.3492    8.8739  -27.5853 C.ar      1 ZMA    0.1754
      4 O4         35.7797    7.6583  -28.1957 O.3       1 ZMA   -0.3464
      5 C5         34.5721    8.8261  -26.4219 C.ar      1 ZMA   -0.0258
      6 C6         34.1608    9.9784  -25.7745 C.ar      1 ZMA   -0.0403
      7 C7         34.4725   11.1886  -26.3416 C.ar      1 ZMA    0.1266
      8 C8         34.0366   12.4399  -25.6441 C.3       1 ZMA   -0.0275
      9 C9         35.3203   12.8641  -24.9460 C.3       1 ZMA    0.0083
     10 N10        35.1192   14.0508  -24.1813 N.pl3     1 ZMA   -0.2421
     11 C11        34.6083   13.9249  -22.8647 C.2       1 ZMA    0.2313
     12 N12        34.5002   15.0100  -22.1418 N.2       1 ZMA   -0.1782
     13 N13        34.2655   12.6882  -22.4864 N.2       1 ZMA   -0.1825
     14 C14        33.7663   12.5863  -21.2602 C.2       1 ZMA    0.2092
     15 N15        33.4304   11.2958  -20.8628 N.pl3     1 ZMA   -0.3290
     16 N16        33.6614   13.6752  -20.4945 N.ar      1 ZMA   -0.1248
     17 N17        33.1502   13.8023  -19.2560 N.ar      1 ZMA   -0.1472
     18 C18        34.0135   14.8647  -20.9255 C.ar      1 ZMA    0.2492
     19 N19        33.8100   15.7614  -20.0021 N.ar      1 ZMA   -0.1884
     20 C20        33.2692   15.0669  -18.9811 C.ar      1 ZMA    0.2143
     21 C21        32.8619   15.5897  -17.7828 C.ar      1 ZMA    0.1906
     22 C22        33.0129   16.8154  -17.2097 C.ar      1 ZMA   -0.0207
     23 C23        32.3188   16.7154  -16.0232 C.ar      1 ZMA    0.0103
     24 C24        31.7734   15.4674  -15.9229 C.ar      1 ZMA    0.0734
     25 O25        32.0866   14.7892  -17.0145 O.2       1 ZMA   -0.2466
     26 HO4        36.2790    7.2315  -27.6553 H         1 ZMA    0.2197
     27 HN10       35.3046   14.8230  -24.5096 H         1 ZMA    0.1663
     28 HN15       33.8108   10.6189  -21.2335 H         1 ZMA    0.1455
     29 HN1A       32.8421   11.1748  -20.2470 H         1 ZMA    0.1455
@<TRIPOS>BOND
     1    1    7 ar
     2    1    2 ar
     3   11   10 2
     4   11   12 2
     5   11   13 2
     6   14   13 2
     7   14   16 1
     8   14   15 2
     9   18   12 1
    10   18   16 ar
    11   18   19 ar
    12    2    3 ar
    13   20   17 ar
    14   20   21 1
    15   20   19 ar
    16   21   22 ar
    17   21   25 ar
    18   22   23 ar
    19   23   24 ar
    20   24   25 ar
    21    3    5 ar
    22    3    4 1
    23    5    6 ar
    24    6    7 ar
    25    7    8 1
    26    8    9 1
    27    9   10 1
    28   27   10 1
    29   28   15 1
    30   29   15 1
    31   26    4 1
    32   16   17 ar
@<TRIPOS>SUBSTRUCTURE
     1 ZMA     1 RESIDUE           4 A     ZMA     0 ROOT
