@<TRIPOS>MOLECULE
6guh_A_ligand.pdb
27 29 1 0 0
SMALL
AMBER ff14SB


@<TRIPOS>ATOM
      1 C4         -1.1389   31.1488   10.0910 C.ar      1 FB8    0.1268
      2 C14         3.9120   28.1394    8.4069 C.ar      1 FB8    0.0751
      3 C5         -0.0581   31.9524    9.5459 C.ar      1 FB8    0.1467
      4 C6         -0.0618   33.3340    9.7414 C.ar      1 FB8   -0.0187
      5 C11         5.2426   28.9813    6.6108 C.ar      1 FB8    0.0751
      6 C7          1.0461   34.0108    9.2724 C.ar      1 FB8    0.0445
      7 C8          1.9309   32.1039    8.3861 C.ar      1 FB8    0.2159
      8 C9          3.5752   30.3908    7.6184 C.ar      1 FB8    0.1251
      9 C10         4.6207   30.2026    6.7269 C.ar      1 FB8   -0.0275
     10 C12         4.9100   27.9738    7.4796 C.ar      1 FB8    0.4278
     11 C13         6.5879   26.4366    5.8497 C.3       1 FB8    0.5102
     12 N1         -3.1845   30.5227   10.8093 N.ar      1 FB8   -0.1821
     13 N2          2.0050   33.4391    8.5396 N.ar      1 FB8   -0.1649
     14 C3         -2.4179   31.5556   10.3344 C.ar      1 FB8    0.0135
     15 N3          2.9924   31.6666    7.6777 N.pl3     1 FB8   -0.2112
     16 C1         -2.7897   28.1328   11.3857 C.3       1 FB8   -0.0247
     17 C2         -2.3740   29.4824   10.8975 C.ar      1 FB8    0.1803
     18 S1          5.7889   26.4512    7.3956 S.o2      1 FB8   -0.1163
     19 O1          6.8609   26.5563    8.3625 O.2       1 FB8   -0.4969
     20 O2          4.7980   25.4192    7.4963 O.2       1 FB8   -0.4969
     21 C15         3.2370   29.3383    8.4773 C.ar      1 FB8   -0.0275
     22 N4          0.9346   31.3308    8.8790 N.ar      1 FB8   -0.2060
     23 N5         -1.1069   29.7676   10.4142 N.ar      1 FB8   -0.1633
     24 C16         0.0646   28.9281   10.4172 C.3       1 FB8    0.1316
     25 C17         0.3562   28.5091   11.8790 C.3       1 FB8   -0.0375
     26 C18        -0.1098   27.8354    9.4124 C.3       1 FB8   -0.0375
     27 HN3         3.4375   32.3662    7.1016 H         1 FB8    0.1387
@<TRIPOS>BOND
     1   16   17 1
     2    9    8 ar
     3    9    5 ar
     4    5   10 ar
     5   10   18 1
     6   10    2 ar
     7   11   18 1
     8    2   21 ar
     9   21    8 ar
    10   24   23 1
    11   24   26 1
    12   24   25 1
    13   17   23 ar
    14   17   12 ar
    15   14   12 ar
    16   14    1 ar
    17    1   23 ar
    18    1    3 1
    19    3   22 ar
    20    3    4 ar
    21    4    6 ar
    22    6   13 ar
    23    7   22 ar
    24    7   15 1
    25    7   13 ar
    26    8   15 1
    27   27   15 1
    28   19   18 2
    29   20   18 2
@<TRIPOS>SUBSTRUCTURE
     1 FB8     1 RESIDUE           4 A     FB8     0 ROOT
