4XUD
     RDKit          3D

 23 25  0  0  0  0  0  0  0  0999 V2000
   -7.9410    3.1660  -24.5440 C   0  0  0  0  0  0  0  0  0  0  0  0
   -6.5050    1.6850  -23.4560 C   0  0  0  0  0  0  0  0  0  0  0  0
   -6.3970    2.5150  -22.3410 C   0  0  0  0  0  0  0  0  0  0  0  0
   -7.1040    3.7210  -22.3420 C   0  0  0  0  0  0  0  0  0  0  0  0
   -7.3540    1.1850  -25.6110 C   0  0  0  0  0  0  0  0  0  0  0  0
   -7.7060   -1.0600  -26.4910 C   0  0  0  0  0  0  0  0  0  0  0  0
   -7.6250   -0.5770  -27.8080 C   0  0  0  0  0  0  0  0  0  0  0  0
   -8.2020    0.7750  -30.3990 C   0  0  0  0  0  0  0  0  0  0  0  0
   -7.8830    4.0360  -23.4630 C   0  0  0  0  0  0  0  0  0  0  0  0
   -7.2470    2.0050  -24.5430 N   0  0  0  0  0  0  0  0  0  0  0  0
   -7.1430    4.6280  -21.3680 O   0  0  0  0  0  0  0  0  0  0  0  0
   -8.5610    5.1810  -23.4260 O   0  0  0  0  0  0  0  0  0  0  0  0
   -7.5750   -0.1860  -25.4170 C   0  0  0  0  0  0  0  0  0  0  0  0
   -7.4220    0.7940  -28.0230 C   0  0  0  0  0  0  0  0  0  0  0  0
   -7.2930    1.6600  -26.9280 C   0  0  0  0  0  0  0  0  0  0  0  0
   -5.5800    2.1530  -21.1230 B   0  0  0  0  0  0  0  0  0  0  0  0
   -5.4220    3.0010  -19.9000 O   0  0  0  0  0  0  0  0  0  0  0  0
   -4.8810    0.8200  -20.9940 O   0  0  0  0  0  0  0  0  0  0  0  0
   -7.3440    1.3020  -29.4300 C   0  0  0  0  0  0  0  0  0  0  0  0
   -6.4270    2.2920  -29.7750 C   0  0  0  0  0  0  0  0  0  0  0  0
   -6.3420    2.7710  -31.0890 C   0  0  0  0  0  0  0  0  0  0  0  0
   -7.1910    2.2330  -32.0630 C   0  0  0  0  0  0  0  0  0  0  0  0
   -8.1240    1.2410  -31.7180 C   0  0  0  0  0  0  0  0  0  0  0  0
 16 17  1  0
 16  3  1  0
 16 18  1  0
  9  1  2  0
  9 12  1  0
  9  4  1  0
  1 10  1  0
 14 19  1  0
 14 15  1  0
 14  7  2  0
 15  5  2  0
 19  8  2  0
 19 20  1  0
 20 21  2  0
 21 22  1  0
 22 23  2  0
 23  8  1  0
  2 10  1  0
  2  3  2  0
  3  4  1  0
  4 11  2  0
  5 10  1  0
  5 13  1  0
 13  6  2  0
  6  7  1  0
M  END
$$$$
