6Q39
     RDKit          3D

 23 24  0  0  0  0  0  0  0  0999 V2000
   35.4050   85.5560   71.1500 C   0  0  0  0  0  0  0  0  0  0  0  0
   34.0680   88.7530   71.6300 C   0  0  0  0  0  0  0  0  0  0  0  0
   37.7150   86.8000   66.3080 B   0  0  2  0  0  0  0  0  0  0  0  0
   33.6900   87.2980   71.4110 C   0  0  1  0  0  0  0  0  0  0  0  0
   34.7970   84.1670   72.9770 C   0  0  0  0  0  0  0  0  0  0  0  0
   33.8440   83.8940   74.1300 C   0  0  2  0  0  0  0  0  0  0  0  0
   31.6270   82.7730   74.5630 C   0  0  0  0  0  0  0  0  0  0  0  0
   34.5770   86.5890   70.3900 C   0  0  1  0  0  0  0  0  0  0  0  0
   32.1840   82.6300   75.9750 C   0  0  0  0  0  0  0  0  0  0  0  0
   33.6020   82.0770   75.9290 C   0  0  0  0  0  0  0  0  0  0  0  0
   34.5470   82.9730   75.1270 C   0  0  0  0  0  0  0  0  0  0  0  0
   35.5380   87.4400   69.5760 C   0  0  0  0  0  0  0  0  0  0  0  0
   36.2360   86.6150   68.4770 C   0  0  0  0  0  0  0  0  0  0  0  0
   37.0130   87.5490   67.5300 C   0  0  0  0  0  0  0  0  0  0  0  0
   33.8130   86.4750   72.7080 C   0  0  0  0  0  0  0  0  0  0  0  0
   34.9770   85.5750   72.5590 N   0  0  0  0  0  0  0  0  0  0  0  0
   32.2940   87.2380   70.9430 N   0  0  0  0  0  0  0  0  0  0  0  0
   32.6240   83.2760   73.6290 N   0  0  0  0  0  0  0  0  0  0  0  0
   35.1660   89.0480   72.1840 O   0  0  0  0  0  0  0  0  0  0  0  0
   33.2430   89.6340   71.2490 O   0  0  0  0  0  0  0  0  0  0  0  0
   38.1590   87.6340   65.1290 O   0  0  0  0  0  0  0  0  0  0  0  0
   36.5630   86.0700   65.5620 O   0  0  0  0  0  0  0  0  0  0  0  0
   38.6280   85.6700   66.7110 O   0  0  0  0  0  0  0  0  0  0  0  0
  3 14  1  0
  3 21  1  6
  3 22  1  0
  3 23  1  0
  4  2  1  0
  4  8  1  0
  4 15  1  0
  4 17  1  6
  1  8  1  0
  1 16  1  0
  2 19  2  0
  2 20  1  0
  6  5  1  1
 16  5  1  6
  6 11  1  0
  6 18  1  0
  7  9  1  0
  7 18  1  0
  8 12  1  1
  9 10  1  0
 10 11  1  0
 12 13  1  0
 13 14  1  0
 15 16  1  0
M  CHG  1   3  -1
M  END
$$$$
