@<TRIPOS>MOLECULE
2ydv_A_ligand.pdb
27 29 1 0 0
SMALL
AMBER ff14SB


@<TRIPOS>ATOM
      1 C5'        33.3608   18.4219  -15.8512 C.2       1 NEC    0.2808
      2 O5'        32.7541   17.3664  -15.7642 O.2       1 NEC   -0.2684
      3 N5'        33.6891   19.1688  -14.7946 N.am      1 NEC   -0.2377
      4 C51        33.0960   18.9832  -13.4815 C.3       1 NEC    0.0161
      5 C52        33.8938   19.6641  -12.3839 C.3       1 NEC    0.0074
      6 C4'        33.8007   18.9403  -17.1928 C.3       1 NEC    0.1799
      7 O4'        34.8571   18.1110  -17.6948 O.3       1 NEC   -0.2831
      8 C3'        32.6862   18.8966  -18.2374 C.3       1 NEC    0.1426
      9 O3'        32.0187   20.1565  -18.3819 O.3       1 NEC   -0.3559
     10 C2'        33.4052   18.5082  -19.5132 C.3       1 NEC    0.1524
     11 O2'        33.8807   19.6748  -20.1993 O.3       1 NEC   -0.3551
     12 C1'        34.5952   17.6866  -19.0373 C.3       1 NEC    0.1919
     13 N9         34.2073   16.2466  -19.1197 N.ar      1 NEC   -0.1760
     14 C8         33.6602   15.4928  -18.1387 C.ar      1 NEC    0.0760
     15 N7         33.4140   14.2274  -18.5728 N.ar      1 NEC   -0.1834
     16 C5         33.7908   14.1559  -19.8568 C.ar      1 NEC    0.1543
     17 C6         33.8142   13.1146  -20.9107 C.ar      1 NEC    0.1448
     18 N6         33.3682   11.8568  -20.6771 N.pl3     1 NEC   -0.2842
     19 N1         34.3065   13.4632  -22.1247 N.ar      1 NEC   -0.1730
     20 C2         34.7631   14.7026  -22.3802 C.ar      1 NEC    0.1030
     21 N3         34.7789   15.6907  -21.4658 N.ar      1 NEC   -0.1677
     22 C4         34.3127   15.4868  -20.2140 C.ar      1 NEC    0.1800
     23 H5'        34.3812   19.8954  -14.9136 H         1 NEC    0.1665
     24 HO2'       33.5570   20.4617  -19.7551 H         1 NEC    0.2185
     25 HO3'       32.5491   20.7383  -18.9307 H         1 NEC    0.2185
     26 H61        32.9039   11.5211  -19.8448 H         1 NEC    0.1259
     27 H62        33.5434   11.1984  -21.4229 H         1 NEC    0.1259
@<TRIPOS>BOND
     1   12    7 1
     2   12   13 1
     3   12   10 1
     4   20   19 ar
     5   20   21 ar
     6   10   11 1
     7   10    8 1
     8    8    9 1
     9    8    6 1
    10   22   16 ar
    11   22   13 ar
    12   22   21 ar
    13    6    1 1
    14    6    7 1
    15   16   15 ar
    16   16   17 ar
    17    1    2 2
    18    1    3 am
    19    4    3 1
    20    4    5 1
    21   17   18 1
    22   17   19 ar
    23   14   15 ar
    24   14   13 ar
    25   23    3 1
    26   26   18 1
    27   27   18 1
    28   24   11 1
    29   25    9 1
@<TRIPOS>SUBSTRUCTURE
     1 NEC     6 RESIDUE           4 A     NEC     0 ROOT
