5HJA
     RDKit          3D

 28 29  0  0  0  0  0  0  0  0999 V2000
  -22.5080   -6.9520   32.4910 O   0  0  0  0  0  0  0  0  0  0  0  0
  -22.1100   -5.3430   32.3640 B   0  0  1  0  0  0  0  0  0  0  0  0
  -21.3990   -4.8900   33.7610 O   0  0  0  0  0  0  0  0  0  0  0  0
  -21.0100   -5.1950   31.0890 O   0  0  0  0  0  0  0  0  0  0  0  0
  -23.5200   -4.4340   32.0550 C   0  0  0  0  0  0  0  0  0  0  0  0
  -23.1200   -2.9840   31.9760 C   0  0  0  0  0  0  0  0  0  0  0  0
  -24.3730   -2.0330   31.9400 C   0  0  0  0  0  0  0  0  0  0  0  0
  -24.0660   -0.6920   31.1700 C   0  0  0  0  0  0  0  0  0  0  0  0
  -25.0870    0.4420   31.5360 C   0  0  1  0  0  0  0  0  0  0  0  0
  -25.2160    0.5360   32.9440 N   0  0  0  0  0  0  0  0  0  0  0  0
  -24.5500    1.7660   31.0000 C   0  0  1  0  0  0  0  0  0  0  0  0
  -25.5320    2.8440   31.2610 C   0  0  0  0  0  0  0  0  0  0  0  0
  -24.9740    4.1940   30.8570 C   0  0  0  0  0  0  0  0  0  0  0  0
  -23.6850    4.4550   31.5150 N   0  0  0  0  0  0  0  0  0  0  0  0
  -23.1930    5.7590   31.1300 C   0  0  0  0  0  0  0  0  0  0  0  0
  -21.9610    6.1490   31.9470 C   0  0  0  0  0  0  0  0  0  0  0  0
  -20.7570    6.3610   31.3090 C   0  0  0  0  0  0  0  0  0  0  0  0
  -19.6350    6.7220   32.0480 C   0  0  0  0  0  0  0  0  0  0  0  0
  -19.7270    6.8680   33.4130 C   0  0  0  0  0  0  0  0  0  0  0  0
  -18.3130    7.3230   34.3510 Cl  0  0  0  0  0  0  0  0  0  0  0  0
  -20.9420    6.6570   34.0550 C   0  0  0  0  0  0  0  0  0  0  0  0
  -21.0530    6.8460   35.7940 Cl  0  0  0  0  0  0  0  0  0  0  0  0
  -22.0580    6.3000   33.3230 C   0  0  0  0  0  0  0  0  0  0  0  0
  -22.6900    3.3870   31.2340 C   0  0  0  0  0  0  0  0  0  0  0  0
  -23.2340    2.0410   31.6320 C   0  0  0  0  0  0  0  0  0  0  0  0
  -26.4450    0.1200   30.9170 C   0  0  0  0  0  0  0  0  0  0  0  0
  -26.5550   -0.0260   29.6790 O   0  0  0  0  0  0  0  0  0  0  0  0
  -27.4620   -0.0060   31.6540 O   0  0  0  0  0  0  0  0  0  0  0  0
  2  4  1  6
  2  5  1  0
  2  3  1  0
  2  1  1  0
  5  6  1  0
  6  7  1  0
  7  8  1  0
  8  9  1  0
  9 26  1  0
  9 10  1  1
  9 11  1  0
 11 25  1  6
 11 12  1  0
 12 13  1  0
 13 14  1  0
 15 16  1  0
 14 15  1  6
 16 17  2  0
 16 23  1  0
 17 18  1  0
 18 19  2  0
 19 20  1  0
 19 21  1  0
 21 22  1  0
 21 23  2  0
 24 25  1  0
 24 14  1  0
 26 28  2  0
 26 27  1  0
M  CHG  1   2  -1
M  END
$$$$
