@<TRIPOS>MOLECULE
5u09_A_ligand.pdb
39 41 1 0 0
SMALL
AMBER ff14SB


@<TRIPOS>ATOM
      1 CBF        17.3203  -74.8411  306.8623 C.ar      1 7DY   -0.0140
      2 CBG        18.4363  -75.4518  306.3049 C.ar      1 7DY   -0.0427
      3 CBH        19.6898  -75.0778  306.7675 C.ar      1 7DY    0.1674
      4 CBJ        20.8410  -75.6429  306.2576 C.3       1 7DY    0.4325
      5 FAC        21.3994  -76.6080  307.0658 F         1 7DY   -0.1647
      6 FAD        21.6702  -74.7193  305.9784 F         1 7DY   -0.1647
      7 FAB        20.5014  -76.2839  305.0846 F         1 7DY   -0.1647
      8 CBI        19.7854  -74.0760  307.7420 C.ar      1 7DY    0.0128
      9 NAH        18.6447  -73.4939  308.3017 N.ar      1 7DY   -0.1708
     10 CBD        17.4287  -73.8564  307.8556 C.ar      1 7DY    0.2320
     11 OAE        16.2767  -73.2759  308.3315 O.3       1 7DY   -0.2802
     12 CAP        16.3765  -71.9721  308.9055 C.3       1 7DY    0.2749
     13 CAT        16.9212  -72.0098  310.3219 C.3       1 7DY   -0.0396
     14 CAU        15.1002  -71.1753  308.8203 C.3       1 7DY   -0.0396
     15 CAQ        17.3856  -71.1544  308.0674 C.2       1 7DY    0.2750
     16 OAF        18.3259  -70.5791  308.6081 O.2       1 7DY   -0.2715
     17 NAG        17.1201  -71.0721  306.7535 N.am      1 7DY   -0.2729
     18 CAK        18.0617  -70.4429  305.7931 C.3       1 7DY    0.1014
     19 CAN        18.2270  -71.3681  304.5817 C.3       1 7DY   -0.0430
     20 CAJ        17.5642  -69.0819  305.2808 C.3       1 7DY    0.0721
     21 CAM        18.5791  -68.4231  304.5539 C.ar      1 7DY    0.0870
     22 CAR        18.4283  -68.1428  303.1849 C.ar      1 7DY   -0.0755
     23 CAX        19.4264  -67.4453  302.4829 C.ar      1 7DY    0.1251
     24 CBE        19.2840  -67.1495  301.0500 C.1       1 7DY   -0.0304
     25 NAI        19.2226  -66.8790  299.8694 N.pl3     1 7DY   -0.3238
     26 CAZ        20.5904  -67.0504  303.1334 C.ar      1 7DY   -0.0348
     27 CAY        20.7506  -67.3544  304.4807 C.ar      1 7DY   -0.0157
     28 CAS        19.7576  -68.0407  305.1900 C.ar      1 7DY   -0.0434
     29 CAL        17.0743  -68.2293  306.4727 C.3       1 7DY   -0.0821
     30 CAO        16.3341  -67.1085  306.0622 C.ar      1 7DY    0.1179
     31 CAV        16.5350  -65.8868  306.6913 C.ar      1 7DY   -0.0421
     32 CBA        15.8334  -64.7696  306.2725 C.ar      1 7DY   -0.0386
     33 CBC        14.8863  -64.8767  305.2685 C.ar      1 7DY    0.1409
     34 CLAA       13.9498  -63.5158  304.8176 Cl        1 7DY   -0.0644
     35 CBB        14.6510  -66.0984  304.6712 C.ar      1 7DY   -0.0386
     36 CAW        15.3563  -67.2148  305.0811 C.ar      1 7DY   -0.0421
     37 HAG        16.2495  -71.4503  306.4078 H         1 7DY    0.1565
     38 HAI1       19.9905  -66.3983  299.4215 H         1 7DY    0.1522
     39 HAI2       18.4051  -67.1343  299.3340 H         1 7DY    0.1522
@<TRIPOS>BOND
     1   20   29 1
     2   20   18 1
     3   20   21 1
     4   18   19 1
     5   18   17 1
     6   29   30 1
     7   21   22 ar
     8   21   28 ar
     9   30   31 ar
    10   30   36 ar
    11   12   13 1
    12   12   11 1
    13   12   15 1
    14   12   14 1
    15   15   16 2
    16   15   17 am
    17   22   23 ar
    18   28   27 ar
    19   31   32 ar
    20   36   35 ar
    21   23   26 ar
    22   23   24 1
    23   27   26 ar
    24   32   33 ar
    25   35   33 ar
    26   33   34 1
    27   10    1 ar
    28   10    9 ar
    29   10   11 1
    30   24   25 2
    31    1    2 ar
    32    2    3 ar
    33    3    8 ar
    34    3    4 1
    35    8    9 ar
    36    4    6 1
    37    4    5 1
    38    4    7 1
    39   37   17 1
    40   38   25 1
    41   39   25 1
@<TRIPOS>SUBSTRUCTURE
     1 7DY     1 RESIDUE           4 A     7DY     0 ROOT
