6UWP_ligand
     RDKit          3D

 53 57  0  0  0  0  0  0  0  0999 V2000
  -15.1820  -11.4570    1.6480 C   0  0  1  0  0  0  0  0  0  0  0  0
  -17.5420  -18.2970    1.4450 C   0  0  2  0  0  0  0  0  0  0  0  0
  -14.7370  -25.6110    0.1470 C   0  0  0  0  0  0  0  0  0  0  0  0
  -16.8220  -23.9480    0.9410 N   0  0  0  0  0  0  0  0  0  0  0  0
  -16.1130  -16.2700    2.1410 C   0  0  0  0  0  0  0  0  0  0  0  0
  -14.5880  -19.3190   -1.1070 C   0  0  0  0  0  0  0  0  0  0  0  0
  -15.4820  -23.5770    0.9150 C   0  0  0  0  0  0  0  0  0  0  0  0
  -17.0790  -25.1940    0.4900 C   0  0  0  0  0  0  0  0  0  0  0  0
  -16.4880  -16.2820    3.3180 O   0  0  0  0  0  0  0  0  0  0  0  0
  -15.5090  -15.2000    1.5560 N   0  0  0  0  0  0  0  0  0  0  0  0
  -15.3340  -13.9550    2.2980 C   0  0  1  0  0  0  0  0  0  0  0  0
  -14.8530  -12.8830    1.3310 C   0  0  1  0  0  0  0  0  0  0  0  0
  -15.8770  -12.1750    0.4780 C   0  0  2  0  0  0  0  0  0  0  0  0
  -15.5260  -11.7860   -0.9340 C   0  0  1  0  0  0  0  0  0  0  0  0
  -16.2690  -17.4400    1.2670 C   0  0  1  0  0  0  0  0  0  0  0  0
  -16.1920  -18.8430    1.8750 C   0  0  2  0  0  0  0  0  0  0  0  0
  -15.5090  -19.9770    1.1100 C   0  0  1  0  0  0  0  0  0  0  0  0
  -15.5730  -19.7500   -0.3360 N   0  0  0  0  0  0  0  0  0  0  0  0
  -14.0850  -20.2500    1.6520 C   0  0  2  0  0  0  0  0  0  0  0  0
  -13.0360  -19.2500    1.1780 C   0  0  2  0  0  0  0  0  0  0  0  0
  -12.9360  -19.0220   -0.6170 S   0  0  0  0  0  0  0  0  0  0  0  0
  -14.7980  -19.0760   -2.4280 N   0  0  0  0  0  0  0  0  0  0  0  0
  -16.2550  -21.2970    1.4520 C   0  0  2  0  0  0  0  0  0  0  0  0
  -15.2170  -22.2730    1.2110 N   0  0  0  0  0  0  0  0  0  0  0  0
  -13.8560  -21.7180    1.2020 C   0  0  2  0  0  0  0  0  0  0  0  0
  -14.4150  -24.3310    0.5600 N   0  0  0  0  0  0  0  0  0  0  0  0
  -16.0500  -26.0410    0.0750 C   0  0  0  0  0  0  0  0  0  0  0  0
  -15.7430  -11.2140    2.5500 H   0  0  0  0  0  0  0  0  0  0  0  0
  -14.4220  -10.7290    1.3620 H   0  0  0  0  0  0  0  0  0  0  0  0
  -18.0450  -18.7130    0.5720 H   0  0  0  0  0  0  0  0  0  0  0  0
  -18.2000  -17.9890    2.2580 H   0  0  0  0  0  0  0  0  0  0  0  0
  -13.9440  -26.2920   -0.1260 H   0  0  0  0  0  0  0  0  0  0  0  0
  -18.1000  -25.5420    0.4490 H   0  0  0  0  0  0  0  0  0  0  0  0
  -15.1800  -15.2680    0.6030 H   0  0  0  0  0  0  0  0  0  0  0  0
  -16.2840  -13.6530    2.7390 H   0  0  0  0  0  0  0  0  0  0  0  0
  -14.5930  -14.0980    3.0850 H   0  0  0  0  0  0  0  0  0  0  0  0
  -13.8820  -13.0580    0.8670 H   0  0  0  0  0  0  0  0  0  0  0  0
  -16.9150  -12.4620    0.6470 H   0  0  0  0  0  0  0  0  0  0  0  0
  -15.8970  -17.3340    0.2480 H   0  0  0  0  0  0  0  0  0  0  0  0
  -16.0330  -18.8620    2.9530 H   0  0  0  0  0  0  0  0  0  0  0  0
  -14.1190  -20.2240    2.7410 H   0  0  0  0  0  0  0  0  0  0  0  0
  -12.0620  -19.5930    1.5280 H   0  0  0  0  0  0  0  0  0  0  0  0
  -13.2480  -18.2840    1.6370 H   0  0  0  0  0  0  0  0  0  0  0  0
  -17.1110  -21.4540    0.7960 H   0  0  0  0  0  0  0  0  0  0  0  0
  -16.5620  -21.3080    2.4980 H   0  0  0  0  0  0  0  0  0  0  0  0
  -13.2110  -22.2480    1.9030 H   0  0  0  0  0  0  0  0  0  0  0  0
  -13.4370  -21.7490    0.1960 H   0  0  0  0  0  0  0  0  0  0  0  0
  -16.2780  -27.0280   -0.3010 H   0  0  0  0  0  0  0  0  0  0  0  0
  -15.7140  -19.2190   -2.8280 H   0  0  0  0  0  0  0  0  0  0  0  0
  -14.0380  -18.7530   -3.0090 H   0  0  0  0  0  0  0  0  0  0  0  0
  -16.3780  -11.2880   -1.3970 H   0  0  0  0  0  0  0  0  0  0  0  0
  -14.6720  -11.1080   -0.9220 H   0  0  0  0  0  0  0  0  0  0  0  0
  -15.2730  -12.6790   -1.5050 H   0  0  0  0  0  0  0  0  0  0  0  0
  1 12  1  0
  1 13  1  0
  1 28  1  1
  1 29  1  0
  2 15  1  0
  2 16  1  0
  2 30  1  6
  2 31  1  0
  3 26  2  0
  3 27  1  0
  3 32  1  0
  4  7  2  0
  4  8  1  0
  5  9  2  0
  5 10  1  0
  5 15  1  0
  6 18  2  0
  6 21  1  0
  6 22  1  0
  7 24  1  0
  7 26  1  0
  8 27  2  0
  8 33  1  0
 10 11  1  0
 10 34  1  0
 11 12  1  0
 11 35  1  1
 11 36  1  0
 12 13  1  0
 12 37  1  6
 13 14  1  0
 13 38  1  1
 14 51  1  6
 14 52  1  0
 14 53  1  0
 15 16  1  0
 15 39  1  6
 16 17  1  0
 16 40  1  1
 17 18  1  6
 17 19  1  0
 17 23  1  0
 19 20  1  0
 19 25  1  0
 19 41  1  1
 20 21  1  0
 20 42  1  1
 20 43  1  0
 22 49  1  0
 22 50  1  0
 23 24  1  0
 23 44  1  6
 23 45  1  0
 24 25  1  0
 25 46  1  1
 25 47  1  0
 27 48  1  0
M  END
