@<TRIPOS>MOLECULE
5es1_A_ligand.pdb
36 39 1 0 0
SMALL
AMBER ff14SB


@<TRIPOS>ATOM
      1 C18       -40.9271  -13.6142  -24.7922 C.3       1 5RC    0.1522
      2 C16       -41.2993  -13.5871  -22.3507 C.2       1 5RC    0.2620
      3 C15       -43.9569  -14.6549  -17.9315 C.3       1 5RC   -0.0441
      4 C19       -41.0907  -12.5545  -25.9010 C.3       1 5RC    0.0832
      5 C20       -42.4250  -12.7212  -26.6283 C.3       1 5RC   -0.0047
      6 C21       -42.5793  -14.1191  -27.2251 C.3       1 5RC   -0.0115
      7 F30       -49.4033   -9.5749  -23.4212 F         1 5RC   -0.1647
      8 C22       -42.5088  -15.2034  -26.1516 C.3       1 5RC   -0.0081
      9 C23       -41.2589  -15.0639  -25.3309 C.3       1 5RC    0.3527
     10 C11       -43.4142  -12.6519  -21.1318 C.ar      1 5RC   -0.0887
     11 C12       -42.1953  -13.2817  -21.2168 C.ar      1 5RC    0.1186
     12 N1        -47.6222  -11.6844  -19.8456 N.ar      1 5RC   -0.1281
     13 C2        -46.5189  -12.1192  -20.5749 C.ar      1 5RC    0.1813
     14 C3        -45.5246  -12.4656  -19.6659 C.ar      1 5RC    0.0985
     15 C4        -46.0950  -12.1984  -18.4091 C.ar      1 5RC    0.0206
     16 N5        -47.3864  -11.7186  -18.4733 N.ar      1 5RC   -0.1218
     17 C6        -48.7406  -11.2535  -20.4720 C.2       1 5RC    0.0034
     18 C7        -48.7145  -11.2395  -21.8858 C.2       1 5RC    0.1761
     19 C8        -47.5937  -11.7149  -22.5381 C.2       1 5RC    0.0122
     20 N9        -46.4955  -12.1507  -21.9140 N.2       1 5RC   -0.1850
     21 C10       -44.1694  -13.0283  -19.9670 C.ar      1 5RC    0.0607
     22 S13       -41.9698  -14.3450  -19.8652 S.2       1 5RC   -0.0654
     23 C14       -43.5168  -13.9528  -19.1816 C.ar      1 5RC    0.0804
     24 N17       -41.7247  -13.3264  -23.6005 N.am      1 5RC   -0.2726
     25 F24       -40.2029  -15.5664  -26.0230 F         1 5RC   -0.1846
     26 O25       -40.1722  -14.0295  -22.1230 O.2       1 5RC   -0.2702
     27 F26       -41.3135  -15.9147  -24.2746 F         1 5RC   -0.1846
     28 N27       -40.9318  -11.1769  -25.4127 N.4       1 5RC    0.2764
     29 C28       -49.8305  -10.6120  -22.6686 C.3       1 5RC    0.4332
     30 F29       -50.3782  -11.4727  -23.5484 F         1 5RC   -0.1647
     31 F31       -50.8352  -10.1426  -21.8898 F         1 5RC   -0.1647
     32 C32       -43.8855  -16.1619  -18.0142 C.3       1 5RC   -0.0089
     33 H17       -42.6380  -12.9127  -23.7215 H         1 5RC    0.1562
     34 H271      -40.2282  -11.1550  -24.6890 H         1 5RC    0.2016
     35 H272      -40.6483  -10.5794  -26.1766 H         1 5RC    0.2016
     36 H273      -41.8107  -10.8493  -25.0373 H         1 5RC    0.2016
@<TRIPOS>BOND
     1   21   23 ar
     2   21   10 ar
     3   21   14 1
     4   10   11 ar
     5   11    2 1
     6   11   22 ar
     7   23   22 ar
     8   23    3 1
     9    3   32 1
    10    2   26 2
    11    2   24 am
    12    1    9 1
    13    1   24 1
    14    1    4 1
    15    4   28 1
    16    4    5 1
    17   13   12 ar
    18   13   20 1
    19   13   14 ar
    20    5    6 1
    21    6    8 1
    22    8    9 1
    23    9   25 1
    24    9   27 1
    25   29   18 1
    26   29    7 1
    27   29   31 1
    28   29   30 1
    29   14   15 ar
    30   15   16 ar
    31   17   12 1
    32   17   18 2
    33   18   19 2
    34   19   20 2
    35   33   24 1
    36   34   28 1
    37   35   28 1
    38   36   28 1
    39   12   16 ar
@<TRIPOS>SUBSTRUCTURE
     1 5RC     1 RESIDUE           4 A     5RC     0 ROOT
