5U4E
     RDKit          3D

 21 22  0  0  0  0  0  0  0  0999 V2000
   42.8960    1.6850   21.4940 C   0  0  0  0  0  0  0  0  0  0  0  0
   43.2760    0.3700   21.6960 C   0  0  0  0  0  0  0  0  0  0  0  0
   43.5980   -0.0770   22.9680 C   0  0  0  0  0  0  0  0  0  0  0  0
   43.5230    0.7960   24.0430 C   0  0  0  0  0  0  0  0  0  0  0  0
   43.1530    2.1150   23.8360 C   0  0  0  0  0  0  0  0  0  0  0  0
   42.8330    2.5590   22.5640 C   0  0  0  0  0  0  0  0  0  0  0  0
   43.8890    0.3470   25.4430 C   0  0  0  0  0  0  0  0  0  0  0  0
   43.1170    0.2340   26.5380 C   0  0  0  0  0  0  0  0  0  0  0  0
   43.5820   -0.1920   27.9260 C   0  0  0  0  0  0  0  0  0  0  0  0
   44.5980   -1.1170   28.1710 C   0  0  0  0  0  0  0  0  0  0  0  0
   44.9650   -1.4350   29.4690 C   0  0  0  0  0  0  0  0  0  0  0  0
   44.3320   -0.8360   30.5400 C   0  0  0  0  0  0  0  0  0  0  0  0
   43.3290    0.0890   30.3100 C   0  0  0  0  0  0  0  0  0  0  0  0
   42.9600    0.4080   29.0110 C   0  0  0  0  0  0  0  0  0  0  0  0
   43.3430   -0.5680   20.5140 C   0  0  0  0  0  0  0  0  0  0  0  0
   46.1050   -0.8960   32.5250 O   0  0  0  0  0  0  0  0  0  0  0  0
   43.8830   -1.9140   32.9370 O   0  0  0  0  0  0  0  0  0  0  0  0
   42.9130   -0.1910   19.3940 O   0  0  0  0  0  0  0  0  0  0  0  0
   43.8330   -1.7180   20.6450 O   0  0  0  0  0  0  0  0  0  0  0  0
   45.4630   -1.9390   26.9090 Cl  0  0  0  0  0  0  0  0  0  0  0  0
   44.7920   -1.2340   32.0730 B   0  0  0  0  0  0  0  0  0  0  0  0
 21 12  1  0
 21 16  1  0
 21 17  1  0
  1  6  2  0
  1  2  1  0
  2  3  2  0
  2 15  1  0
  3  4  1  0
  4  5  2  0
  4  7  1  0
  5  6  1  0
  7  8  2  3
  8  9  1  0
  9 10  2  0
  9 14  1  0
 10 11  1  0
 10 20  1  0
 11 12  2  0
 12 13  1  0
 13 14  2  0
 15 18  2  0
 15 19  1  0
M  END
$$$$
