@<TRIPOS>MOLECULE
5lyj_AB_ATP_MG_ligand.pdb
24 25 1 0 0
SMALL
AMBER ff14SB


@<TRIPOS>ATOM
      1 C4         13.3322   54.6530   50.8280 C.ar      1 7BA    0.1729
      2 C5         14.6146   54.9316   50.3217 C.ar      1 7BA    0.1726
      3 C6         15.6946   54.9863   51.2106 C.ar      1 7BA   -0.0579
      4 C7         11.6945   54.0089   54.1074 C.3       1 7BA    0.0912
      5 C8         11.8337   55.4262   48.9687 C.3       1 7BA    0.0907
      6 C9         15.9666   55.9353   48.5696 C.3       1 7BA    0.0912
      7 C3         13.1910   54.4360   52.2003 C.ar      1 7BA    0.1726
      8 C7'        15.2149   48.5305   57.4090 C.3       1 7BA    0.0912
      9 O4'        14.5854   49.5292   56.6646 O.3       1 7BA   -0.2462
     10 C4'        15.2030   50.6367   56.1522 C.ar      1 7BA    0.1818
     11 C3'        15.8339   51.5831   56.9691 C.ar      1 7BA    0.1576
     12 C2'        16.4331   52.6983   56.3965 C.ar      1 7BA   -0.0585
     13 O3'        15.8655   51.4021   58.3093 O.3       1 7BA   -0.3509
     14 C5'        15.1724   50.8493   54.7929 C.ar      1 7BA   -0.0301
     15 C6'        15.7699   51.9595   54.2259 C.ar      1 7BA   -0.0414
     16 C1'        16.3891   52.9058   55.0248 C.ar      1 7BA    0.1198
     17 C1B        17.0260   54.0337   54.4966 C.2       1 7BA   -0.0424
     18 C1A        16.6499   54.8488   53.4139 C.2       1 7BA   -0.0429
     19 C1         15.5301   54.7618   52.5658 C.ar      1 7BA    0.1144
     20 C2         14.2718   54.5031   53.0448 C.ar      1 7BA   -0.0579
     21 O3         11.9511   54.1644   52.7200 O.3       1 7BA   -0.2474
     22 O4         12.1990   54.5582   50.0500 O.3       1 7BA   -0.2519
     23 O5         14.8344   55.1519   48.9775 O.3       1 7BA   -0.2474
     24 H3'        16.4875   52.0209   58.7010 H         1 7BA    0.2191
@<TRIPOS>BOND
     1   19   18 1
     2   19   20 ar
     3   19    3 ar
     4   16   12 ar
     5   16   17 1
     6   16   15 ar
     7   18   17 2
     8   20    7 ar
     9   12   11 ar
    10    7   21 1
    11    7    1 ar
    12   11   10 ar
    13   11   13 1
    14    1   22 1
    15    1    2 ar
    16   10   14 ar
    17   10    9 1
    18    2   23 1
    19    2    3 ar
    20   14   15 ar
    21    4   21 1
    22    8    9 1
    23    5   22 1
    24    6   23 1
    25   24   13 1
@<TRIPOS>SUBSTRUCTURE
     1 7BA     1 RESIDUE           4 B     7BA     0 ROOT
