6IBV
     RDKit          3D

 15 16  0  0  0  0  0  0  0  0999 V2000
   -3.9230   37.7050  -13.4010 C   0  0  0  0  0  0  0  0  0  0  0  0
   -4.4820   37.1250  -14.6890 C   0  0  0  0  0  0  0  0  0  0  0  0
   -5.7120   36.1890  -14.6530 C   0  0  0  0  0  0  0  0  0  0  0  0
   -6.5250   35.4290  -15.8160 C   0  0  0  0  0  0  0  0  0  0  0  0
  -10.2300   33.9280  -15.3450 O   0  0  0  0  0  0  0  0  0  0  0  0
   -8.7730   34.1750  -17.6290 O   0  0  0  0  0  0  0  0  0  0  0  0
   -6.3460   35.8540  -13.3800 C   0  0  0  0  0  0  0  0  0  0  0  0
   -5.7830   36.4410  -12.0600 C   0  0  0  0  0  0  0  0  0  0  0  0
   -4.5760   37.3620  -12.0820 C   0  0  0  0  0  0  0  0  0  0  0  0
   -2.7090   38.6300  -13.4390 C   0  0  0  0  0  0  0  0  0  0  0  0
   -7.6150   34.6660  -15.2160 C   0  0  0  0  0  0  0  0  0  0  0  0
   -8.7240   33.7230  -16.0270 B   0  0  1  0  0  0  0  0  0  0  0  0
   -8.2770   32.1220  -15.9150 O   0  0  0  0  0  0  0  0  0  0  0  0
   -7.5490   34.8990  -13.6770 S   0  0  0  0  0  0  0  0  0  0  0  0
   -2.9840   39.7530  -14.3170 Br  0  0  0  0  0  0  0  0  0  0  0  0
 12 11  1  0
 12 13  1  6
 12  5  1  0
 12  6  1  0
 15 10  1  0
  1  2  2  0
  1  9  1  0
  1 10  1  0
  2  3  1  0
  3  4  1  0
  3  7  2  0
  4 11  2  0
 11 14  1  0
  7 14  1  0
  7  8  1  0
  8  9  2  0
M  CHG  1  12  -1
M  END
$$$$
