7KLL
     RDKit          3D

 16 16  0  0  0  0  0  0  0  0999 V2000
   13.0090    6.6450   23.7390 N   0  0  0  0  0  0  0  0  0  0  0  0
   14.3560    4.5780   23.9490 C   0  0  1  0  0  0  0  0  0  0  0  0
   14.8490    4.2500   22.5250 C   0  0  0  0  0  0  0  0  0  0  0  0
   14.6760    2.8520   21.9210 C   0  0  0  0  0  0  0  0  0  0  0  0
   14.9320    2.8880   20.4100 C   0  0  0  0  0  0  0  0  0  0  0  0
   16.6440    6.5600   23.5820 O   0  0  0  0  0  0  0  0  0  0  0  0
   15.4990    6.9620   23.5650 C   0  0  0  0  0  0  0  0  0  0  0  0
   15.1380    8.1060   23.0330 O   0  0  0  0  0  0  0  0  0  0  0  0
   14.3420    6.1610   24.2480 C   0  0  1  0  0  0  0  0  0  0  0  0
   12.0370    5.5040   23.8290 C   0  0  0  0  0  0  0  0  0  0  0  0
   12.8850    4.2300   24.2460 C   0  0  2  0  0  0  0  0  0  0  0  0
   12.6310    3.8450   25.6690 N   0  0  0  0  0  0  0  0  0  0  0  0
   14.6780    1.5240   19.6730 B   0  0  1  0  0  0  0  0  0  0  0  0
   15.0260    0.3570   20.4640 O   0  0  0  0  0  0  0  0  0  0  0  0
   13.3020    1.2790   19.2560 O   0  0  0  0  0  0  0  0  0  0  0  0
   15.3900    1.4030   18.3660 O   0  0  0  0  0  0  0  0  0  0  0  0
 13  5  1  0
 13 14  1  1
 13 15  1  0
 13 16  1  0
 11  2  1  0
 11 10  1  0
 11 12  1  6
 10  1  1  0
  9  1  1  0
  9  2  1  0
  9  7  1  1
  7  6  2  0
  7  8  1  0
  2  3  1  6
  3  4  1  0
  4  5  1  0
M  CHG  1  13  -1
M  END
$$$$
