3MNU
     RDKit          3D

 20 21  0  0  0  0  0  0  0  0999 V2000
   -5.0350    6.8770   12.6790 B   0  0  0  0  0  0  0  0  0  0  0  0
   -4.7000    2.9870   14.6850 C   0  0  0  0  0  0  0  0  0  0  0  0
   -5.2300   -0.6310   16.1300 N   0  0  0  0  0  0  0  0  0  0  0  0
   -6.8580    1.2100   16.0640 O   0  0  0  0  0  0  0  0  0  0  0  0
   -5.4890    0.9080   16.3630 S   0  0  2  0  0  0  0  0  0  0  0  0
   -5.9570    3.6560   14.6490 C   0  0  0  0  0  0  0  0  0  0  0  0
   -4.5210    1.6990   15.2960 N   0  0  0  0  0  0  0  0  0  0  0  0
   -5.0090    1.2590   17.6670 O   0  0  0  0  0  0  0  0  0  0  0  0
   -6.0590    4.9150   14.0080 C   0  0  0  0  0  0  0  0  0  0  0  0
   -3.9810    7.7330   12.5110 O   0  0  0  0  0  0  0  0  0  0  0  0
   -4.9260    5.5080   13.4060 C   0  0  0  0  0  0  0  0  0  0  0  0
   -6.1850    7.3330   12.0990 O   0  0  0  0  0  0  0  0  0  0  0  0
   -3.6890    4.8460   13.4530 C   0  0  0  0  0  0  0  0  0  0  0  0
   -3.5680    3.5940   14.0860 C   0  0  0  0  0  0  0  0  0  0  0  0
   -4.2180    8.4890   11.2640 C   0  0  2  0  0  0  0  0  0  0  0  0
   -5.7900    8.2040   10.9680 C   0  0  2  0  0  0  0  0  0  0  0  0
   -3.2260    7.9560   10.2280 C   0  0  0  0  0  0  0  0  0  0  0  0
   -3.8420    9.9440   11.5550 C   0  0  0  0  0  0  0  0  0  0  0  0
   -6.7050    9.4210   11.0320 C   0  0  0  0  0  0  0  0  0  0  0  0
   -6.1040    7.4340    9.6790 C   0  0  0  0  0  0  0  0  0  0  0  0
  1 11  1  0
  1 12  1  0
  1 10  1  0
  2  6  2  0
  2 14  1  0
  2  7  1  0
 15 18  1  1
 16 19  1  6
 20 16  1  0
  6  9  1  0
  9 11  2  0
 11 13  1  0
 13 14  2  0
 15 16  1  0
 15 17  1  0
 15 10  1  0
 16 12  1  0
  5  3  1  6
  7  5  1  0
  4  5  2  0
  8  5  2  0
M  END
$$$$
