5OL3
     RDKit          3D

 30 33  0  0  0  0  0  0  0  0999 V2000
    9.7550   13.0800    7.8550 C   0  0  0  0  0  0  0  0  0  0  0  0
   10.9470   13.7420    7.6170 C   0  0  0  0  0  0  0  0  0  0  0  0
   12.0620   13.0540    7.2460 C   0  0  0  0  0  0  0  0  0  0  0  0
   12.0230   11.6460    7.0810 C   0  0  0  0  0  0  0  0  0  0  0  0
   10.8040   10.9570    7.2960 C   0  0  0  0  0  0  0  0  0  0  0  0
   10.8140    9.5470    7.1660 C   0  0  0  0  0  0  0  0  0  0  0  0
    9.6730   11.7210    7.7060 C   0  0  0  0  0  0  0  0  0  0  0  0
   13.1510    9.5500    6.6800 N   0  0  0  0  0  0  0  0  0  0  0  0
    8.3940    9.9670    9.1280 O   0  0  0  0  0  0  0  0  0  0  0  0
    4.6420   15.9670    8.6590 O   0  0  0  0  0  0  0  0  0  0  0  0
    7.5300   10.5300    6.8820 O   0  0  0  0  0  0  0  0  0  0  0  0
    8.1470   10.9360    8.1060 S   0  0  2  0  0  0  0  0  0  0  0  0
   11.9840    8.9190    6.8680 C   0  0  0  0  0  0  0  0  0  0  0  0
   13.1580   10.8700    6.7740 C   0  0  0  0  0  0  0  0  0  0  0  0
    7.1650   12.0610    8.7720 N   0  0  0  0  0  0  0  0  0  0  0  0
    6.6290   13.0940    7.8660 C   0  0  0  0  0  0  0  0  0  0  0  0
    5.1820   12.9290    7.6230 C   0  0  0  0  0  0  0  0  0  0  0  0
    4.3310   13.3170    8.7570 N   0  0  0  0  0  0  0  0  0  0  0  0
    4.6440   12.6880   10.0450 C   0  0  0  0  0  0  0  0  0  0  0  0
    5.9520   13.1100   10.7010 C   0  0  0  0  0  0  0  0  0  0  0  0
    7.1700   12.3290   10.2240 C   0  0  0  0  0  0  0  0  0  0  0  0
    2.8960   13.4690    8.4770 C   0  0  0  0  0  0  0  0  0  0  0  0
    2.6150   14.1270    7.1480 C   0  0  0  0  0  0  0  0  0  0  0  0
    2.8980   15.4890    6.9120 C   0  0  0  0  0  0  0  0  0  0  0  0
    3.6030   16.4680    7.9370 B   0  0  0  0  0  0  0  0  0  0  0  0
    3.2530   17.7780    8.0960 O   0  0  0  0  0  0  0  0  0  0  0  0
    2.6100   16.0060    5.6420 C   0  0  0  0  0  0  0  0  0  0  0  0
    2.0930   15.2090    4.6360 C   0  0  0  0  0  0  0  0  0  0  0  0
    1.8330   13.8840    4.8730 C   0  0  0  0  0  0  0  0  0  0  0  0
    2.0790   13.3440    6.1210 C   0  0  0  0  0  0  0  0  0  0  0  0
 25 10  1  0
 25 24  1  0
 25 26  1  0
  7  1  2  0
  7  5  1  0
 12  7  1  6
  1  2  1  0
 20 19  1  0
 20 21  1  0
 19 18  1  0
 18 22  1  6
 22 23  1  0
 23 30  1  0
 23 24  2  0
 30 29  2  0
 29 28  1  0
 28 27  2  0
 27 24  1  0
 17 16  1  0
 17 18  1  0
  2  3  2  0
 16 15  1  0
  3  4  1  0
  4  5  2  0
  4 14  1  0
  5  6  1  0
  6 13  2  0
 13  8  1  0
 14  8  2  0
 21 15  1  0
 15 12  1  0
  9 12  2  0
 11 12  2  0
M  END
$$$$
