@<TRIPOS>MOLECULE
5tgz_A_ligand.pdb
34 37 1 0 0
SMALL
AMBER ff14SB


@<TRIPOS>ATOM
      1 CAE        12.9412  -61.4789  307.5950 C.3       1 ZDG   -0.0000
      2 CAD        12.8881  -62.0086  306.1607 C.3       1 ZDG   -0.0006
      3 CAA        13.7589  -63.2595  306.0516 C.1       1 ZDG   -0.0075
      4 CAB        14.3807  -64.2680  305.9509 C.1       1 ZDG   -0.0343
      5 CAC        15.2382  -65.5302  305.8518 C.ar      1 ZDG    0.1258
      6 CAN        14.8319  -66.6010  305.0733 C.ar      1 ZDG   -0.0423
      7 CAM        15.6187  -67.7400  304.9996 C.ar      1 ZDG   -0.0489
      8 CAJ        16.4263  -65.5991  306.5559 C.ar      1 ZDG   -0.0423
      9 CAK        17.2133  -66.7356  306.4809 C.ar      1 ZDG   -0.0489
     10 CAL        16.8109  -67.8060  305.7040 C.ar      1 ZDG    0.1001
     11 CAO        17.6824  -69.0612  305.6241 C.ar      1 ZDG    0.0996
     12 CAS        17.7445  -70.0636  306.5515 C.ar      1 ZDG    0.0832
     13 CBB        16.9534  -70.1127  307.8547 C.3       1 ZDG   -0.0568
     14 NAP        18.5097  -69.3732  304.6319 N.ar      1 ZDG   -0.1793
     15 CAT        18.7691  -68.5946  303.4372 C.ar      1 ZDG    0.1332
     16 CAY        19.8831  -67.7693  303.3876 C.ar      1 ZDG    0.1167
     17 CLA        20.9969  -67.6512  304.7794 Cl        1 ZDG   -0.0721
     18 CAX        20.1435  -67.0260  302.2522 C.ar      1 ZDG   -0.0684
     19 CAW        19.2967  -67.1010  301.1609 C.ar      1 ZDG    0.1344
     20 CLB        19.6431  -66.1379  299.6984 Cl        1 ZDG   -0.0650
     21 CAV        18.1841  -67.9251  301.2068 C.ar      1 ZDG   -0.0390
     22 CAU        17.9172  -68.6750  302.3436 C.ar      1 ZDG   -0.0399
     23 NAQ        19.1071  -70.5848  304.9368 N.ar      1 ZDG   -0.1688
     24 CAR        18.6377  -71.0009  306.1044 C.ar      1 ZDG    0.1632
     25 CBC        19.0434  -72.3000  306.7956 C.2       1 ZDG    0.2800
     26 OBE        19.4095  -72.2889  307.9218 O.2       1 ZDG   -0.2685
     27 NBD        18.9723  -73.5467  306.0453 N.am      1 ZDG   -0.2199
     28 NBF        19.2980  -74.6694  306.5652 N.3       1 ZDG   -0.0766
     29 CBG        18.2965  -75.5173  306.3725 C.3       1 ZDG    0.0289
     30 CBH        18.5601  -76.9331  306.8865 C.3       1 ZDG    0.0057
     31 CBI        19.9233  -77.5101  306.5190 C.3       1 ZDG    0.0009
     32 CBJ        20.9726  -76.4105  306.4381 C.3       1 ZDG    0.0057
     33 CBK        20.4150  -75.0712  305.9778 C.3       1 ZDG    0.0289
     34 HBD        18.6562  -73.5238  305.0865 H         1 ZDG    0.1729
@<TRIPOS>BOND
     1    3    4 3
     2    3    2 1
     3    4    5 1
     4    5    8 ar
     5    5    6 ar
     6    2    1 1
     7    8    9 ar
     8    9   10 ar
     9   10    7 ar
    10   10   11 1
    11    7    6 ar
    12   11   12 ar
    13   11   14 ar
    14   24   12 ar
    15   24   25 1
    16   24   23 ar
    17   12   13 1
    18   15   16 ar
    19   15   22 ar
    20   15   14 1
    21   22   21 ar
    22   21   19 ar
    23   19   18 ar
    24   19   20 1
    25   18   16 ar
    26   16   17 1
    27   25   27 am
    28   25   26 2
    29   29   28 1
    30   29   30 1
    31   30   31 1
    32   31   32 1
    33   32   33 1
    34   33   28 1
    35   34   27 1
    36   14   23 ar
    37   27   28 1
@<TRIPOS>SUBSTRUCTURE
     1 ZDG     1 RESIDUE           4 A     ZDG     0 ROOT
