2ZWZ_ligand
     RDKit          3D

 30 30  0  0  0  0  0  0  0  0999 V2000
   -3.1150   26.0590   24.4980 O   0  0  0  0  0  0  0  0  0  0  0  0
   -1.7520   26.4870   24.5090 C   0  0  1  0  0  0  0  0  0  0  0  0
   -1.5670   27.6750   23.5630 C   0  0  2  0  0  0  0  0  0  0  0  0
   -2.0330   27.3480   22.2530 O   0  0  0  0  0  0  0  0  0  0  0  0
   -0.0770   28.0090   23.5140 C   0  0  2  0  0  0  0  0  0  0  0  0
    0.5930   26.8790   22.9420 O   0  0  0  0  0  0  0  0  0  0  0  0
    0.4280   28.3030   24.9310 C   0  0  2  0  0  0  0  0  0  0  0  0
    1.9310   28.5830   24.9400 C   0  0  1  0  0  0  0  0  0  0  0  0
    0.1470   27.1820   25.8460 N   0  0  2  0  0  0  0  0  0  0  0  0
   -1.2940   26.8920   25.9150 C   0  0  2  0  0  0  0  0  0  0  0  0
   -1.5220   25.7600   26.9200 C   0  0  1  0  0  0  0  0  0  0  0  0
   -1.5400   26.2820   28.2960 N   0  0  1  0  0  0  0  0  0  0  0  0
    0.4780   27.4210   26.7700 H   0  0  0  0  0  0  0  0  0  0  0  0
    0.6350   26.3590   25.5220 H   0  0  0  0  0  0  0  0  0  0  0  0
   -2.2410   28.1550   21.7760 H   0  0  0  0  0  0  0  0  0  0  0  0
   -0.7710   26.9240   28.4230 H   0  0  0  0  0  0  0  0  0  0  0  0
   -2.4120   26.7640   28.4610 H   0  0  0  0  0  0  0  0  0  0  0  0
   -1.4500   25.5160   28.9480 H   0  0  0  0  0  0  0  0  0  0  0  0
    0.6640   26.1820   23.5990 H   0  0  0  0  0  0  0  0  0  0  0  0
   -3.5800   26.4540   25.2390 H   0  0  0  0  0  0  0  0  0  0  0  0
   -1.1260   25.6650   24.1620 H   0  0  0  0  0  0  0  0  0  0  0  0
   -2.1210   28.5330   23.9430 H   0  0  0  0  0  0  0  0  0  0  0  0
    0.0800   28.8840   22.8830 H   0  0  0  0  0  0  0  0  0  0  0  0
   -0.0880   29.1880   25.3030 H   0  0  0  0  0  0  0  0  0  0  0  0
   -1.8340   27.7830   26.2360 H   0  0  0  0  0  0  0  0  0  0  0  0
   -2.4770   25.2800   26.7070 H   0  0  0  0  0  0  0  0  0  0  0  0
   -0.7210   25.0270   26.8240 H   0  0  0  0  0  0  0  0  0  0  0  0
    2.2570   28.7880   25.9600 H   0  0  0  0  0  0  0  0  0  0  0  0
    2.4650   27.7140   24.5560 H   0  0  0  0  0  0  0  0  0  0  0  0
    2.1430   29.4470   24.3100 H   0  0  0  0  0  0  0  0  0  0  0  0
  1  2  1  0
  1 20  1  0
  2  3  1  0
  2 10  1  0
  2 21  1  6
  3  4  1  0
  3  5  1  0
  3 22  1  1
  4 15  1  0
  5  6  1  0
  5  7  1  0
  5 23  1  6
  6 19  1  0
  7  8  1  0
  7  9  1  0
  7 24  1  1
  8 28  1  1
  8 29  1  0
  8 30  1  0
  9 10  1  0
  9 13  1  1
  9 14  1  0
 10 11  1  0
 10 25  1  1
 11 12  1  0
 11 26  1  6
 11 27  1  0
 12 16  1  6
 12 17  1  0
 12 18  1  0
M  CHG  2   9   1  12   1
M  END
