7ZZT_ligand
     RDKit          3D

 38 39  0  0  0  0  0  0  0  0999 V2000
   20.4910  -19.4620   -0.4590 C   0  0  2  0  0  0  0  0  0  0  0  0
   20.0920  -19.5460    1.0130 C   0  0  2  0  0  0  0  0  0  0  0  0
   18.7850  -20.6660    2.8060 C   0  0  0  0  0  0  0  0  0  0  0  0
   19.5890  -20.7060    3.9360 C   0  0  0  0  0  0  0  0  0  0  0  0
   19.0490  -20.5660    5.1950 C   0  0  0  0  0  0  0  0  0  0  0  0
   17.6920  -20.3820    5.3440 C   0  0  0  0  0  0  0  0  0  0  0  0
   17.4220  -20.4810    2.9690 C   0  0  0  0  0  0  0  0  0  0  0  0
   21.1620  -18.1140   -0.6670 C   0  0  0  0  0  0  0  0  0  0  0  0
   23.2180  -16.7270   -0.6570 C   0  0  2  0  0  0  0  0  0  0  0  0
   24.6410  -17.1460   -0.8730 C   0  0  2  0  0  0  0  0  0  0  0  0
   24.7580  -18.4550   -0.1330 C   0  0  2  0  0  0  0  0  0  0  0  0
   19.3040  -19.5560   -1.3480 N   0  0  2  0  0  0  0  0  0  0  0  0
   19.3890  -20.8200    1.4330 C   0  0  2  0  0  0  0  0  0  0  0  0
   16.8770  -20.3400    4.2330 C   0  0  0  0  0  0  0  0  0  0  0  0
   20.4440  -17.1530   -0.9230 O   0  0  0  0  0  0  0  0  0  0  0  0
   22.4990  -18.0090   -0.5670 N   0  0  0  0  0  0  0  0  0  0  0  0
   23.4240  -19.1390   -0.3930 C   0  0  1  0  0  0  0  0  0  0  0  0
   21.1180  -20.1840   -0.6800 H   0  0  0  0  0  0  0  0  0  0  0  0
   19.5020  -18.7850    1.2190 H   0  0  0  0  0  0  0  0  0  0  0  0
   20.9030  -19.4460    1.5600 H   0  0  0  0  0  0  0  0  0  0  0  0
   20.5300  -20.8330    3.8380 H   0  0  0  0  0  0  0  0  0  0  0  0
   19.6140  -20.5960    5.9650 H   0  0  0  0  0  0  0  0  0  0  0  0
   17.3150  -20.2850    6.2160 H   0  0  0  0  0  0  0  0  0  0  0  0
   16.8550  -20.4500    2.2020 H   0  0  0  0  0  0  0  0  0  0  0  0
   22.8890  -16.1920   -1.4060 H   0  0  0  0  0  0  0  0  0  0  0  0
   23.1220  -16.2130    0.1690 H   0  0  0  0  0  0  0  0  0  0  0  0
   25.2600  -16.4810   -0.5080 H   0  0  0  0  0  0  0  0  0  0  0  0
   24.8290  -17.2660   -1.8270 H   0  0  0  0  0  0  0  0  0  0  0  0
   24.8950  -18.3050    0.8250 H   0  0  0  0  0  0  0  0  0  0  0  0
   25.5000  -18.9900   -0.4810 H   0  0  0  0  0  0  0  0  0  0  0  0
   18.8190  -18.7860   -1.3010 H   0  0  0  0  0  0  0  0  0  0  0  0
   18.7780  -20.2490   -1.0920 H   0  0  0  0  0  0  0  0  0  0  0  0
   20.0330  -21.5600    1.4380 H   0  0  0  0  0  0  0  0  0  0  0  0
   18.6810  -21.0310    0.7860 H   0  0  0  0  0  0  0  0  0  0  0  0
   15.9370  -20.2120    4.3350 H   0  0  0  0  0  0  0  0  0  0  0  0
   23.4600  -19.6910   -1.2000 H   0  0  0  0  0  0  0  0  0  0  0  0
   23.1600  -19.6950    0.3630 H   0  0  0  0  0  0  0  0  0  0  0  0
   19.5710  -19.6900   -2.2100 H   0  0  0  0  0  0  0  0  0  0  0  0
  1  2  1  0
  1  8  1  0
  1 12  1  0
  1 18  1  6
  2 13  1  0
  2 19  1  1
  2 20  1  0
  3  4  2  0
  3  7  1  0
  3 13  1  0
  4  5  1  0
  4 21  1  0
  5  6  2  0
  5 22  1  0
  6 14  1  0
  6 23  1  0
  7 14  2  0
  7 24  1  0
  8 15  2  0
  8 16  1  0
  9 10  1  0
  9 16  1  0
  9 25  1  6
  9 26  1  0
 10 11  1  0
 10 27  1  1
 10 28  1  0
 11 17  1  0
 11 29  1  1
 11 30  1  0
 12 31  1  6
 12 32  1  0
 12 38  1  0
 13 33  1  1
 13 34  1  0
 14 35  1  0
 16 17  1  0
 17 36  1  6
 17 37  1  0
M  CHG  1  12   1
M  END
