6RVF
     RDKit          3D

 21 23  0  0  0  0  0  0  0  0999 V2000
   -6.4230    4.5800   15.4550 C   0  0  0  0  0  0  0  0  0  0  0  0
   -5.2640    5.1500   14.9340 C   0  0  0  0  0  0  0  0  0  0  0  0
   -4.0930    4.4150   14.9290 C   0  0  0  0  0  0  0  0  0  0  0  0
   -4.0840    3.1160   15.4400 C   0  0  0  0  0  0  0  0  0  0  0  0
   -5.2410    2.5130   15.9660 C   0  0  0  0  0  0  0  0  0  0  0  0
   -6.4090    3.3040   15.9590 C   0  0  0  0  0  0  0  0  0  0  0  0
   -7.5280    2.4960   16.5490 C   0  0  0  0  0  0  0  0  0  0  0  0
   -7.0630    1.1580   16.5080 O   0  0  0  0  0  0  0  0  0  0  0  0
   -5.2400    0.9460   18.0360 O   0  0  0  0  0  0  0  0  0  0  0  0
    0.8680    9.3910   12.8740 C   0  0  0  0  0  0  0  0  0  0  0  0
    0.1630    8.1880   12.8810 C   0  0  0  0  0  0  0  0  0  0  0  0
    0.6960   10.3000   13.8970 C   0  0  0  0  0  0  0  0  0  0  0  0
   -0.1780   10.0220   14.9250 C   0  0  0  0  0  0  0  0  0  0  0  0
   -0.8860    8.8240   14.9410 C   0  0  0  0  0  0  0  0  0  0  0  0
   -0.7030    7.9060   13.9110 C   0  0  0  0  0  0  0  0  0  0  0  0
   -3.3040    7.2060   15.0060 O   0  0  0  0  0  0  0  0  0  0  0  0
   -2.8960    5.0140   14.4570 N   0  0  0  0  0  0  0  0  0  0  0  0
   -1.3450    6.6260   13.9880 N   0  0  0  0  0  0  0  0  0  0  0  0
   -2.5610    6.3460   14.5200 C   0  0  0  0  0  0  0  0  0  0  0  0
   -5.5920    1.0890   16.6200 B   0  0  2  0  0  0  0  0  0  0  0  0
   -5.1460   -0.1150   15.8880 O   0  0  0  0  0  0  0  0  0  0  0  0
 20  8  1  0
 20  5  1  0
 20 21  1  6
 20  9  1  0
  5  4  1  0
  5  6  2  0
 11 15  1  0
 11 10  2  0
 10 12  1  0
 12 13  2  0
 13 14  1  0
 14 15  2  0
  4  3  2  0
  3  2  1  0
  3 17  1  0
  2  1  2  0
  1  6  1  0
  6  7  1  0
  7  8  1  0
 19 18  1  0
 19 16  2  0
 19 17  1  0
 15 18  1  0
M  CHG  1  20  -1
M  END
$$$$
