4ey7
     RDKit          3D

 58 61  0  0  0  0  0  0  0  0999 V2000
   12.1090  -50.7890  -23.4660 C   0  0  0  0  0  0  0  0  0  0  0  0
   12.6830  -51.3280  -24.5920 C   0  0  0  0  0  0  0  0  0  0  0  0
   12.5240  -52.6740  -24.8840 C   0  0  0  0  0  0  0  0  0  0  0  0
   11.7720  -53.4980  -24.0290 C   0  0  0  0  0  0  0  0  0  0  0  0
   11.1890  -52.9740  -22.8990 C   0  0  0  0  0  0  0  0  0  0  0  0
   11.3530  -51.5940  -22.5990 C   0  0  0  0  0  0  0  0  0  0  0  0
   10.4500  -54.0510  -22.1770 C   0  0  0  0  0  0  0  0  0  0  0  0
   10.6220  -55.3680  -22.9100 C   0  0  1  0  0  0  0  0  0  0  0  0
   11.4610  -54.9910  -24.1310 C   0  0  1  0  0  0  0  0  0  0  0  0
   11.2070  -56.4790  -22.0310 C   0  0  2  0  0  0  0  0  0  0  0  0
   10.8420  -57.9080  -22.4900 C   0  0  1  0  0  0  0  0  0  0  0  0
   11.5490  -58.3400  -23.7380 C   0  0  1  0  0  0  0  0  0  0  0  0
   11.2470  -59.7520  -24.1460 C   0  0  1  0  0  0  0  0  0  0  0  0
   11.3950  -60.7540  -23.0740 N   0  0  1  0  0  0  0  0  0  0  0  0
   10.8130  -60.2820  -21.8130 C   0  0  1  0  0  0  0  0  0  0  0  0
   11.2690  -58.9050  -21.4300 C   0  0  2  0  0  0  0  0  0  0  0  0
   11.3120  -62.1570  -23.4640 C   0  0  1  0  0  0  0  0  0  0  0  0
    9.8890  -62.5850  -23.7940 C   0  0  0  0  0  0  0  0  0  0  0  0
    9.3880  -62.4340  -25.0930 C   0  0  0  0  0  0  0  0  0  0  0  0
    8.0760  -62.8320  -25.4000 C   0  0  0  0  0  0  0  0  0  0  0  0
    7.2690  -63.3810  -24.4000 C   0  0  0  0  0  0  0  0  0  0  0  0
    7.7640  -63.5400  -23.0890 C   0  0  0  0  0  0  0  0  0  0  0  0
    9.0670  -63.1450  -22.7930 C   0  0  0  0  0  0  0  0  0  0  0  0
    9.7950  -53.8950  -21.1440 O   0  0  0  0  0  0  0  0  0  0  0  0
   12.3080  -49.4460  -23.2490 O   0  0  0  0  0  0  0  0  0  0  0  0
   11.6840  -48.7860  -22.2260 C   0  0  2  0  0  0  0  0  0  0  0  0
   13.4370  -50.5060  -25.4380 O   0  0  0  0  0  0  0  0  0  0  0  0
   13.9990  -51.0470  -26.6020 C   0  0  1  0  0  0  0  0  0  0  0  0
   12.9790  -53.0900  -25.7710 H   0  0  0  0  0  0  0  0  0  0  0  0
   10.9010  -51.1700  -21.7140 H   0  0  0  0  0  0  0  0  0  0  0  0
    9.6420  -55.6920  -23.2590 H   0  0  0  0  0  0  0  0  0  0  0  0
   10.9010  -55.1930  -25.0440 H   0  0  0  0  0  0  0  0  0  0  0  0
   12.3890  -55.5630  -24.1320 H   0  0  0  0  0  0  0  0  0  0  0  0
   10.8370  -56.3410  -21.0150 H   0  0  0  0  0  0  0  0  0  0  0  0
   12.2930  -56.3820  -22.0230 H   0  0  0  0  0  0  0  0  0  0  0  0
    9.7650  -57.9770  -22.6410 H   0  0  0  0  0  0  0  0  0  0  0  0
   11.2500  -57.6760  -24.5490 H   0  0  0  0  0  0  0  0  0  0  0  0
   12.6240  -58.2420  -23.5830 H   0  0  0  0  0  0  0  0  0  0  0  0
   10.2180  -59.7880  -24.5030 H   0  0  0  0  0  0  0  0  0  0  0  0
   11.9090  -60.0240  -24.9680 H   0  0  0  0  0  0  0  0  0  0  0  0
   12.3810  -60.6710  -22.8710 H   0  0  0  0  0  0  0  0  0  0  0  0
    9.7280  -60.2710  -21.9150 H   0  0  0  0  0  0  0  0  0  0  0  0
   11.0850  -60.9770  -21.0180 H   0  0  0  0  0  0  0  0  0  0  0  0
   10.8240  -58.6290  -20.4740 H   0  0  0  0  0  0  0  0  0  0  0  0
   12.3550  -58.8950  -21.3400 H   0  0  0  0  0  0  0  0  0  0  0  0
   11.9370  -62.3130  -24.3430 H   0  0  0  0  0  0  0  0  0  0  0  0
   11.6880  -62.7740  -22.6480 H   0  0  0  0  0  0  0  0  0  0  0  0
   10.0140  -62.0090  -25.8640 H   0  0  0  0  0  0  0  0  0  0  0  0
    7.6930  -62.7140  -26.4030 H   0  0  0  0  0  0  0  0  0  0  0  0
    6.2590  -63.6860  -24.6330 H   0  0  0  0  0  0  0  0  0  0  0  0
    7.1370  -63.9650  -22.3190 H   0  0  0  0  0  0  0  0  0  0  0  0
    9.4500  -63.2680  -21.7910 H   0  0  0  0  0  0  0  0  0  0  0  0
   11.9430  -47.7280  -22.2640 H   0  0  0  0  0  0  0  0  0  0  0  0
   12.0070  -49.2050  -21.2730 H   0  0  0  0  0  0  0  0  0  0  0  0
   10.6050  -48.9000  -22.3250 H   0  0  0  0  0  0  0  0  0  0  0  0
   14.5350  -50.2670  -27.1440 H   0  0  0  0  0  0  0  0  0  0  0  0
   14.6920  -51.8450  -26.3340 H   0  0  0  0  0  0  0  0  0  0  0  0
   13.2080  -51.4500  -27.2340 H   0  0  0  0  0  0  0  0  0  0  0  0
  1  2  2  0
  1  6  1  0
  1 25  1  0
 10  8  1  0
 10 11  1  0
 10 34  1  1
 10 35  1  0
 11 12  1  0
 11 16  1  0
 11 36  1  6
 12 13  1  0
 12 37  1  6
 12 38  1  0
 13 14  1  0
 13 39  1  6
 13 40  1  0
 15 14  1  0
 15 16  1  0
 15 42  1  6
 15 43  1  0
 16 44  1  1
 16 45  1  0
 17 14  1  0
 17 18  1  0
 17 46  1  6
 17 47  1  0
 18 19  2  0
 18 23  1  0
 19 20  1  0
 19 48  1  0
  2  3  1  0
  2 27  1  0
 20 21  2  0
 20 49  1  0
 21 22  1  0
 21 50  1  0
 22 23  2  0
 22 51  1  0
 23 52  1  0
 26 25  1  0
 26 53  1  1
 26 54  1  0
 26 55  1  0
 28 27  1  0
 28 56  1  6
 28 57  1  0
 28 58  1  0
  3  4  2  0
  3 29  1  0
  4  5  1  0
  4  9  1  0
  5  6  2  0
  5  7  1  0
  6 30  1  0
  7  8  1  0
  7 24  2  0
  8  9  1  0
  8 31  1  6
  9 32  1  6
  9 33  1  0
 14 41  1  1
M  CHG  1  14   1
M  END
